
*** ChampSim Multicore Out-of-Order Simulator ***

Warmup Instructions: 50000000
Simulation Instructions: 200000000
Number of CPUs: 1
LLC sets: 2048
LLC ways: 16
Off-chip DRAM Size: 4096 MB Channels: 1 Width: 64-bit Data Rate: 6400 MT/s
CPU 0 runs traces/spec2k17/srv_67.champsimtrace.xz
.xz
BTB has LRU replacement policy
ITLB has LRU replacement policy
DTLB has LRU replacement policy
STLB has LRU replacement policy
L1I has LRU replacement policy
L1D has LRU replacement policy
Initialize SRRIP state for L2C
Initialize DRRIP state for LLC
Offsets elements: 
Potential of Offsets elements: 
rewards of Offsets elements: 
Printing Sanity1
offset list size718
Offsets elements: 
Potential of Offsets elements: 
rewards of Offsets elements: 1682 220 0 0 0 1 0 0 0 0 0 0 0 0 0 0 0 0 0 0 0 0 0 0 0 0 0 0 0 0 0 0 0 0 3006 722 0 0 0 0 1203 0 0 0 53 112 0 0 0 0 0 0 0 0 0 0 0 0 0 0 0 0 0 686 0 0 0 0 0 0 0 0 0 0 7 6 0 0 936 0 0 0 0 0 0 0 0 14 36 9 0 0 0 0 0 0 0 0 224 197 0 0 0 0 16 0 0 0 0 0 0 0 0 4 0 0 116 0 0 0 0 0 0 0 0 0 0 0 0 0 0 0 0 0 0 16 4 0 30 12 4 12 1 0 0 1 99 303 188 263 72 90 78 132 108 348 286 162 78 376 264 99 8 10 240 144 121 276 328 313 170 0 0 0 0 0 0 0 0 0 0 0 14 0 0 0 108 0 0 0 0 0 0 16 0 0 0 0 0 0 0 0 0 0 0 0 0 0 0 5 0 0 49 187 180 432 352 80 88 0 0 0 0 0 0 0 0 0 0 0 0 0 0 0 0 0 0 0 0 0 0 0 0 0 0 0 0 0 0 0 0 0 0 0 0 0 0 0 0 0 0 0 0 0 0 0 0 0 0 0 0 0 0 0 0 0 0 0 0 0 0 0 0 0 0 0 0 0 0 0 0 0 0 0 0 0 0 0 0 0 0 0 0 0 0 0 0 0 0 0 0 0 0 88 0 0 204 0 0 0 0 0 0 0 0 0 0 0 0 0 0 0 0 0 0 0 0 0 0 0 0 0 0 6 72 22 2 0 70 0 12 0 0 28 0 78 120 81 96 35 96 64 96 24 88 117 427 10 9 8 9 15 22 112 15 21 16 18 120 30 54 67 18 162 54 0 0 0 0 0 0 0 0 0 0 0 0 1 0 0 0 0 0 121 0 0 0 0 0 16 0 0 308 0 144 0 0 0 0 1 6 0 0 15 0 0 0 0 0 0 0 0 0 0 0 0 0 0 0 683 0 0 0 0 0 0 0 0 0 0 0 0 0 0 0 0 0 0 0 0 0 0 0 0 0 0 0 0 0 0 0 0 0 0 0 0 0 0 0 0 0 0 0 0 0 0 0 0 0 0 0 0 4 0 0 0 0 0 0 0 0 0 0 0 0 0 0 0 0 0 0 0 0 0 0 0 0 0 0 100 0 0 0 0 0 0 0 0 0 0 0 0 0 0 0 0 0 0 0 0 0 0 0 0 0 0 0 0 0 0 43 108 99 0 36 63 138 0 0 0 0 0 96 91 0 0 60 215 0 0 0 0 89 0 0 11 0 0 0 0 0 0 0 6 0 0 0 0 0 0 0 0 0 0 0 0 0 0 0 0 0 0 0 0 0 0 0 0 0 0 0 0 0 0 0 0 0 0 0 40 0 0 0 0 0 0 0 2 0 0 0 0 102 0 0 32 0 0 0 0 0 0 0 0 0 0 0 0 0 0 0 0 0 0 0 0 0 0 4 0 0 0 0 0 0 0 0 0 0 0 0 0 1 0 0 0 0 0 0 0 0 0 0 0 601 0 0 0 0 0 0 0 0 0 0 0 0 0 0 0 0 0 0 0 0 0 0 0 0 0 0 0 0 0 0 0 1 0 
Printing Sanity2
Heartbeat CPU 0 instructions: 10000001 cycles: 2790863 heartbeat IPC: 3.58312 cumulative IPC: 3.58312 (Simulation time: 0 hr 0 min 22 sec) 
Heartbeat CPU 0 instructions: 20000002 cycles: 5578748 heartbeat IPC: 3.58695 cumulative IPC: 3.58503 (Simulation time: 0 hr 0 min 43 sec) 
Heartbeat CPU 0 instructions: 30000003 cycles: 8367919 heartbeat IPC: 3.58529 cumulative IPC: 3.58512 (Simulation time: 0 hr 1 min 4 sec) 
*** Reached end of trace for Core: 0 Repeating trace: traces/spec2k17/srv_67.champsimtrace.xz
Heartbeat CPU 0 instructions: 40000003 cycles: 11155487 heartbeat IPC: 3.58736 cumulative IPC: 3.58568 (Simulation time: 0 hr 1 min 25 sec) 
Heartbeat CPU 0 instructions: 50000003 cycles: 13943943 heartbeat IPC: 3.58621 cumulative IPC: 3.58579 (Simulation time: 0 hr 1 min 46 sec) 

Warmup complete CPU 0 instructions: 50000003 cycles: 13943943 (Simulation time: 0 hr 1 min 46 sec) 

Heartbeat CPU 0 instructions: 60000001 cycles: 35887859 heartbeat IPC: 0.455707 cumulative IPC: 0.455707 (Simulation time: 0 hr 2 min 19 sec) 
*** Reached end of trace for Core: 0 Repeating trace: traces/spec2k17/srv_67.champsimtrace.xz
Heartbeat CPU 0 instructions: 70000003 cycles: 57256349 heartbeat IPC: 0.467979 cumulative IPC: 0.461761 (Simulation time: 0 hr 2 min 52 sec) 
Heartbeat CPU 0 instructions: 80000001 cycles: 79042382 heartbeat IPC: 0.45901 cumulative IPC: 0.460841 (Simulation time: 0 hr 3 min 24 sec) 
Heartbeat CPU 0 instructions: 90000001 cycles: 100733963 heartbeat IPC: 0.461008 cumulative IPC: 0.460882 (Simulation time: 0 hr 3 min 57 sec) 
*** Reached end of trace for Core: 0 Repeating trace: traces/spec2k17/srv_67.champsimtrace.xz
Heartbeat CPU 0 instructions: 100000003 cycles: 122165806 heartbeat IPC: 0.466596 cumulative IPC: 0.462014 (Simulation time: 0 hr 4 min 30 sec) 
Heartbeat CPU 0 instructions: 110000000 cycles: 143959380 heartbeat IPC: 0.458851 cumulative IPC: 0.461484 (Simulation time: 0 hr 5 min 2 sec) 
Heartbeat CPU 0 instructions: 120000000 cycles: 165617981 heartbeat IPC: 0.46171 cumulative IPC: 0.461516 (Simulation time: 0 hr 5 min 35 sec) 
*** Reached end of trace for Core: 0 Repeating trace: traces/spec2k17/srv_67.champsimtrace.xz
Heartbeat CPU 0 instructions: 130000001 cycles: 187113022 heartbeat IPC: 0.465224 cumulative IPC: 0.461976 (Simulation time: 0 hr 6 min 8 sec) 
Heartbeat CPU 0 instructions: 140000000 cycles: 209036117 heartbeat IPC: 0.45614 cumulative IPC: 0.46132 (Simulation time: 0 hr 6 min 42 sec) 
Heartbeat CPU 0 instructions: 150000002 cycles: 230333232 heartbeat IPC: 0.469547 cumulative IPC: 0.46213 (Simulation time: 0 hr 7 min 14 sec) 
*** Reached end of trace for Core: 0 Repeating trace: traces/spec2k17/srv_67.champsimtrace.xz
Heartbeat CPU 0 instructions: 160000000 cycles: 252002236 heartbeat IPC: 0.461489 cumulative IPC: 0.462072 (Simulation time: 0 hr 7 min 47 sec) 
Heartbeat CPU 0 instructions: 170000001 cycles: 273942432 heartbeat IPC: 0.455784 cumulative IPC: 0.461541 (Simulation time: 0 hr 8 min 20 sec) 
Heartbeat CPU 0 instructions: 180000001 cycles: 295287443 heartbeat IPC: 0.468494 cumulative IPC: 0.462069 (Simulation time: 0 hr 8 min 53 sec) 
*** Reached end of trace for Core: 0 Repeating trace: traces/spec2k17/srv_67.champsimtrace.xz
Heartbeat CPU 0 instructions: 190000000 cycles: 316821730 heartbeat IPC: 0.464376 cumulative IPC: 0.462233 (Simulation time: 0 hr 9 min 26 sec) 
Heartbeat CPU 0 instructions: 200000001 cycles: 338605987 heartbeat IPC: 0.459047 cumulative IPC: 0.462019 (Simulation time: 0 hr 9 min 59 sec) 
Heartbeat CPU 0 instructions: 210000003 cycles: 360154637 heartbeat IPC: 0.464066 cumulative IPC: 0.462146 (Simulation time: 0 hr 10 min 32 sec) 
*** Reached end of trace for Core: 0 Repeating trace: traces/spec2k17/srv_67.champsimtrace.xz
Heartbeat CPU 0 instructions: 220000000 cycles: 381593005 heartbeat IPC: 0.466453 cumulative IPC: 0.462397 (Simulation time: 0 hr 11 min 6 sec) 
Heartbeat CPU 0 instructions: 230000000 cycles: 403327733 heartbeat IPC: 0.460093 cumulative IPC: 0.462269 (Simulation time: 0 hr 11 min 38 sec) 
Heartbeat CPU 0 instructions: 240000001 cycles: 425030451 heartbeat IPC: 0.460772 cumulative IPC: 0.46219 (Simulation time: 0 hr 12 min 11 sec) 
*** Reached end of trace for Core: 0 Repeating trace: traces/spec2k17/srv_67.champsimtrace.xz
Heartbeat CPU 0 instructions: 250000003 cycles: 446441751 heartbeat IPC: 0.467043 cumulative IPC: 0.46243 (Simulation time: 0 hr 12 min 44 sec) 
Finished CPU 0 instructions: 200000000 cycles: 432497808 cumulative IPC: 0.46243 (Simulation time: 0 hr 12 min 44 sec) 

ChampSim completed all CPUs

Region of Interest Statistics

CPU 0 cumulative IPC: 0.46243 instructions: 200000000 cycles: 432497808
ITLB TOTAL     ACCESS:   31346461  HIT:   30553324  MISS:     793137  HIT %:    97.4698  MISS %:    2.53023   MPKI: 3.96569
ITLB LOAD TRANSLATION ACCESS:   31346461  HIT:   30553324  MISS:     793137  HIT %:    97.4698  MISS %:    2.53023   MPKI: 3.96569
ITLB PREFETCH  REQUESTED:          0  ISSUED:          0  USEFUL:          0  USELESS:          0
ITLB USEFUL LOAD PREFETCHES:          0 PREFETCH ISSUED TO LOWER LEVEL:          0  ACCURACY: -nan
ITLB TIMELY PREFETCHES:          0 LATE PREFETCHES: 0 DROPPED PREFETCHES: 0
ITLB PREFETCHES SAME FILL-ORIGIN LEVEL: 0 DIFFERENT FILL-ORIGIN LEVEL: 0
ITLB AVERAGE MISS LATENCY: 14.0829 cycles
ITLB RQ	ACCESS:   38244608	FORWARD:          0	MERGED:    6704569	TO_CACHE:   31540039

DTLB TOTAL     ACCESS:   37281068  HIT:   34702006  MISS:    2579062  HIT %:    93.0821  MISS %:    6.91789   MPKI: 12.8953
DTLB LOAD TRANSLATION ACCESS:   37281068  HIT:   34702006  MISS:    2579062  HIT %:    93.0821  MISS %:    6.91789   MPKI: 12.8953
DTLB PREFETCH  REQUESTED:          0  ISSUED:          0  USEFUL:          0  USELESS:          0
DTLB USEFUL LOAD PREFETCHES:          0 PREFETCH ISSUED TO LOWER LEVEL:          0  ACCURACY: -nan
DTLB TIMELY PREFETCHES:          0 LATE PREFETCHES: 0 DROPPED PREFETCHES: 0
DTLB PREFETCHES SAME FILL-ORIGIN LEVEL: 0 DIFFERENT FILL-ORIGIN LEVEL: 0
DTLB AVERAGE MISS LATENCY: 13.6199 cycles
DTLB RQ	ACCESS:   47710161	FORWARD:          0	MERGED:   10281005	TO_CACHE:   37429156

STLB TOTAL     ACCESS:   26202769  HIT:   25875748  MISS:     327021  HIT %:     98.752  MISS %:    1.24804   MPKI: 1.63511
STLB LOAD TRANSLATION ACCESS:    3372199  HIT:    3050104  MISS:     322095  HIT %:    90.4485  MISS %:    9.55148   MPKI: 1.61048
STLB TRANSLATION FROM L1D PREFETCHER ACCESS:   22830570  HIT:   22825644  MISS:       4926  HIT %:    99.9784  MISS %:  0.0215763   MPKI: 0.02463
STLB PREFETCH  REQUESTED:          0  ISSUED:          0  USEFUL:       4617  USELESS:        309
STLB USEFUL LOAD PREFETCHES:       4617 PREFETCH ISSUED TO LOWER LEVEL:          0  ACCURACY: inf
STLB TIMELY PREFETCHES:       4617 LATE PREFETCHES: 185 DROPPED PREFETCHES: 41251
STLB PREFETCHES SAME FILL-ORIGIN LEVEL: 0 DIFFERENT FILL-ORIGIN LEVEL: 0
STLB AVERAGE MISS LATENCY: 49.1434 cycles
STLB RQ	ACCESS:   30325434	FORWARD:          0	MERGED:    4080779	TO_CACHE:   26244655

STLB Hit, L1D data hit: 0
STLB Hit, L2C data hit: 0
STLB Hit, LLC data hit: 0
STLB Hit, LLC data miss: 0
STLB STLB hints to L2: 0
L1D TOTAL     ACCESS:   73819069  HIT:   69772823  MISS:    4046246  HIT %:    94.5187  MISS %:     5.4813   MPKI: 20.2312
L1D LOAD      ACCESS:   27603189  HIT:   25776201  MISS:    1826988  HIT %:    93.3812  MISS %:    6.61876   MPKI: 9.13494
L1D RFO       ACCESS:   19687397  HIT:   19380552  MISS:     306845  HIT %:    98.4414  MISS %:    1.55859   MPKI: 1.53422
L1D PREFETCH  ACCESS:   26528483  HIT:   24616070  MISS:    1912413  HIT %:    92.7911  MISS %:     7.2089   MPKI: 9.56207
AGUS PREFETCH L1 MISS: 0
L1D PREFETCH  REQUESTED:   54634131  ISSUED:   54633983  USEFUL:     563783  USELESS:    1348646
L1D USEFUL LOAD PREFETCHES:     563783 PREFETCH ISSUED TO LOWER LEVEL:    1974277  ACCURACY: 28.5564
L1D TIMELY PREFETCHES:     563783 LATE PREFETCHES: 59143 DROPPED PREFETCHES: 41251
L1D PREFETCHES SAME FILL-ORIGIN LEVEL: 1974277 DIFFERENT FILL-ORIGIN LEVEL: 0
L1D AVERAGE MISS LATENCY: 3.51907e+06 cycles
L1D RQ	ACCESS:   42210317	FORWARD:          0	MERGED:   14275982	TO_CACHE:   27680895
L1D WQ	ACCESS:   20323448	FORWARD:     293140	MERGED:     294182	TO_CACHE:   20029266
L1D PQ	ACCESS:   27680748	FORWARD:          0	MERGED:     687813	TO_CACHE:   26953235

L1D UNIQUE REGIONS ACCESSED: 0
L1D REGIONS CONFLICTS: 0
L1D Cross Page Prefetch Requests: 597254
L1D Same Page Prefetch Requests: 33543978
L1D ROI Sum of L1D PQ occupancy: 349705623
L1D PREFETCHES PUSHED FROM L2C: 0
L1I TOTAL     ACCESS:   36472263  HIT:   31450502  MISS:    5021761  HIT %:    86.2313  MISS %:    13.7687   MPKI: 25.1088
L1I LOAD      ACCESS:   36472263  HIT:   31450502  MISS:    5021761  HIT %:    86.2313  MISS %:    13.7687   MPKI: 25.1088
L1I PREFETCH  REQUESTED:          0  ISSUED:          0  USEFUL:          0  USELESS:          0
L1I USEFUL LOAD PREFETCHES:          0 PREFETCH ISSUED TO LOWER LEVEL:          0  ACCURACY: -nan
L1I TIMELY PREFETCHES:          0 LATE PREFETCHES: 0 DROPPED PREFETCHES: 0
L1I PREFETCHES SAME FILL-ORIGIN LEVEL: 0 DIFFERENT FILL-ORIGIN LEVEL: 0
L1I AVERAGE MISS LATENCY: 26.9267 cycles
L1I RQ	ACCESS:   57188786	FORWARD:          0	MERGED:   18944178	TO_CACHE:   38244608

BTB TOTAL     ACCESS:   22385295  HIT:   18261967  MISS:    4123328  HIT %:    81.5802  MISS %:    18.4198   MPKI: 20.6166
BTB BRANCH_DIRECT_JUMP	ACCESS:    1763864  HIT:    1523664  MISS:     240200
BTB BRANCH_INDIRECT	ACCESS:    9441713  HIT:    7464419  MISS:    1977294
BTB BRANCH_CONDITIONAL	ACCESS:    4809987  HIT:    4436732  MISS:     373255
BTB BRANCH_DIRECT_CALL	ACCESS:    2503051  HIT:    2063439  MISS:     439612
BTB BRANCH_INDIRECT_CALL	ACCESS:     681117  HIT:     639848  MISS:      41269
BTB BRANCH_RETURN	ACCESS:    3185563  HIT:    2133865  MISS:    1051698
BTB BRANCH_OTHER ACCESS:          0  HIT:          0  MISS:          0

L2C TOTAL     ACCESS:   10647729  HIT:    6691620  MISS:    3956109  HIT %:    62.8455  MISS %:    37.1545   MPKI: 19.7805
L2C LOAD      ACCESS:    6789529  HIT:    4083343  MISS:    2706186  HIT %:    60.1418  MISS %:    39.8582   MPKI: 13.5309
L2C DATA LOAD MPKI: 3.34051
L2C INSTRUCTION LOAD MPKI: 10.1904
L2C RFO       ACCESS:     304123  HIT:     177993  MISS:     126130  HIT %:    58.5266  MISS %:    41.4734   MPKI: 0.63065
L2C PREFETCH  ACCESS:    1974192  HIT:    1085654  MISS:     888538  HIT %:    54.9923  MISS %:    45.0077   MPKI: 4.44269
AGUS PREFETCH L1 MISS: 0
L2C DATA PREFETCH MPKI: 4.44269
L2C INSTRUCTION PREFETCH MPKI: 0
L2C WRITEBACK ACCESS:    1081472  HIT:    1040176  MISS:      41296  HIT %:    96.1815  MISS %:     3.8185   MPKI: 0.20648
L2C LOAD TRANSLATION ACCESS:     428697  HIT:     237974  MISS:     190723  HIT %:     55.511  MISS %:     44.489   MPKI: 0.953615
L2C TRANSLATION FROM L1D PREFETCHER ACCESS:      69716  HIT:      66480  MISS:       3236  HIT %:    95.3583  MISS %:    4.64169   MPKI: 0.01618
L2C PREFETCH  REQUESTED:          0  ISSUED:          0  USEFUL:      55485  USELESS:     836291
L2C USEFUL LOAD PREFETCHES:      55485 PREFETCH ISSUED TO LOWER LEVEL:     888538  ACCURACY: 6.24453
L2C TIMELY PREFETCHES:      55485 LATE PREFETCHES: 0 DROPPED PREFETCHES: 0
L2C PREFETCHES SAME FILL-ORIGIN LEVEL: 0 DIFFERENT FILL-ORIGIN LEVEL: 0
L2C AVERAGE MISS LATENCY: 42.9946 cycles
L2C RQ	ACCESS:    7592143	FORWARD:          0	MERGED:          0	TO_CACHE:    7592065
L2C WQ	ACCESS:    1081472	FORWARD:        163	MERGED:          0	TO_CACHE:    1081472
L2C PQ	ACCESS:    1974277	FORWARD:          0	MERGED:          0	TO_CACHE:    1974192

L2C Instructions Evicting Data 883065
L2C Translations Evicting Data 82817
L2C Data Evicting Data 739611
L2C Instructions Evicting Instructions 1057618
L2C Translations Evicting Instructions 100027
L2C Data Evicting Instructions 859312
L2C Instructions Evicting Translations 97401
L2C Translations Evicting Translations 11115
L2C Data Evicting Translations 83847
L2C Dense regions hint from L2: 0
PSCL5 TOTAL     ACCESS:     368272  HIT:     368272  MISS:          0  HIT %:        100  MISS %:          0   MPKI: 0
PSCL5 LOAD TRANSLATION ACCESS:     321910  HIT:     321910  MISS:          0  HIT %:        100  MISS %:          0   MPKI: 0
PSCL5 TRANSLATION FROM L1D PREFETCHER ACCESS:      46362  HIT:      46362  MISS:          0  HIT %:        100  MISS %:          0   MPKI: 0
PSCL5 PREFETCH  REQUESTED:          0  ISSUED:          0  USEFUL:          0  USELESS:          0
PSCL5 USEFUL LOAD PREFETCHES:          0 PREFETCH ISSUED TO LOWER LEVEL:          0  ACCURACY: -nan
PSCL5 TIMELY PREFETCHES:          0 LATE PREFETCHES: 0 DROPPED PREFETCHES: 0
PSCL5 PREFETCHES SAME FILL-ORIGIN LEVEL: 0 DIFFERENT FILL-ORIGIN LEVEL: 0

PSCL4 TOTAL     ACCESS:     345820  HIT:     345134  MISS:        686  HIT %:    99.8016  MISS %:   0.198369   MPKI: 0.00343
PSCL4 LOAD TRANSLATION ACCESS:     304249  HIT:     303563  MISS:        686  HIT %:    99.7745  MISS %:   0.225473   MPKI: 0.00343
PSCL4 TRANSLATION FROM L1D PREFETCHER ACCESS:      41571  HIT:      41571  MISS:          0  HIT %:        100  MISS %:          0   MPKI: 0
PSCL4 PREFETCH  REQUESTED:          0  ISSUED:          0  USEFUL:          0  USELESS:          0
PSCL4 USEFUL LOAD PREFETCHES:          0 PREFETCH ISSUED TO LOWER LEVEL:          0  ACCURACY: -nan
PSCL4 TIMELY PREFETCHES:          0 LATE PREFETCHES: 0 DROPPED PREFETCHES: 0
PSCL4 PREFETCHES SAME FILL-ORIGIN LEVEL: 0 DIFFERENT FILL-ORIGIN LEVEL: 0

PSCL3 TOTAL     ACCESS:     367263  HIT:     365892  MISS:       1371  HIT %:    99.6267  MISS %:   0.373302   MPKI: 0.006855
PSCL3 LOAD TRANSLATION ACCESS:     320993  HIT:     319622  MISS:       1371  HIT %:    99.5729  MISS %:   0.427112   MPKI: 0.006855
PSCL3 TRANSLATION FROM L1D PREFETCHER ACCESS:      46270  HIT:      46270  MISS:          0  HIT %:        100  MISS %:          0   MPKI: 0
PSCL3 PREFETCH  REQUESTED:          0  ISSUED:          0  USEFUL:          0  USELESS:          0
PSCL3 USEFUL LOAD PREFETCHES:          0 PREFETCH ISSUED TO LOWER LEVEL:          0  ACCURACY: -nan
PSCL3 TIMELY PREFETCHES:          0 LATE PREFETCHES: 0 DROPPED PREFETCHES: 0
PSCL3 PREFETCHES SAME FILL-ORIGIN LEVEL: 0 DIFFERENT FILL-ORIGIN LEVEL: 0

PSCL2 TOTAL     ACCESS:     346677  HIT:     240188  MISS:     106489  HIT %:    69.2829  MISS %:    30.7171   MPKI: 0.532445
PSCL2 LOAD TRANSLATION ACCESS:     323551  HIT:     217062  MISS:     106489  HIT %:    67.0874  MISS %:    32.9126   MPKI: 0.532445
PSCL2 TRANSLATION FROM L1D PREFETCHER ACCESS:      23126  HIT:      23126  MISS:          0  HIT %:        100  MISS %:          0   MPKI: 0
PSCL2 PREFETCH  REQUESTED:          0  ISSUED:          0  USEFUL:          0  USELESS:          0
PSCL2 USEFUL LOAD PREFETCHES:          0 PREFETCH ISSUED TO LOWER LEVEL:          0  ACCURACY: -nan
PSCL2 TIMELY PREFETCHES:          0 LATE PREFETCHES: 0 DROPPED PREFETCHES: 0
PSCL2 PREFETCHES SAME FILL-ORIGIN LEVEL: 0 DIFFERENT FILL-ORIGIN LEVEL: 0

LLC TOTAL     ACCESS:    4368128  HIT:    4011171  MISS:     356957  HIT %:    91.8281  MISS %:    8.17185   MPKI: 1.78479
LLC LOAD      ACCESS:    2706186  HIT:    2614387  MISS:      91799  HIT %:    96.6078  MISS %:    3.39219   MPKI: 0.458995
LLC RFO       ACCESS:     126130  HIT:      89898  MISS:      36232  HIT %:    71.2741  MISS %:    28.7259   MPKI: 0.18116
LLC PREFETCH  ACCESS:     888538  HIT:     674834  MISS:     213704  HIT %:    75.9488  MISS %:    24.0512   MPKI: 1.06852
AGUS PREFETCH L1 MISS: 0
LLC WRITEBACK ACCESS:     453315  HIT:     451595  MISS:       1720  HIT %:    99.6206  MISS %:   0.379427   MPKI: 0.0086
LLC LOAD TRANSLATION ACCESS:     190723  HIT:     177440  MISS:      13283  HIT %:    93.0354  MISS %:    6.96455   MPKI: 0.066415
LLC TRANSLATION FROM L1D PREFETCHER ACCESS:       3236  HIT:       3017  MISS:        219  HIT %:    93.2324  MISS %:    6.76761   MPKI: 0.001095
LLC PREFETCH  REQUESTED:          0  ISSUED:          0  USEFUL:       7303  USELESS:     205821
LLC USEFUL LOAD PREFETCHES:       7303 PREFETCH ISSUED TO LOWER LEVEL:     213704  ACCURACY: 3.41734
LLC TIMELY PREFETCHES:       7303 LATE PREFETCHES: 0 DROPPED PREFETCHES: 0
LLC PREFETCHES SAME FILL-ORIGIN LEVEL: 0 DIFFERENT FILL-ORIGIN LEVEL: 0
LLC AVERAGE MISS LATENCY: 147.484 cycles
LLC RQ	ACCESS:    3026275	FORWARD:          0	MERGED:          0	TO_CACHE:    3026275
LLC WQ	ACCESS:     453315	FORWARD:          0	MERGED:          0	TO_CACHE:     453315
LLC PQ	ACCESS:     888538	FORWARD:          0	MERGED:          0	TO_CACHE:     888538

LLC Dense regions hint to LLC: 0

RAW hits: 2653944
Loads Generated: 44864261
Loads sent to L1D: 42210317
Stores Generated: 20323447
Stores sent to L1D: 20323448
Major fault: 0 Minor fault: 6122
Allocated PAGES: 6122
ucb ended
-----------------------------------------------------------------------------------------------------------------------------------------------------------------------------------------------------
Offsets elements: 1 -9954 9954 -9953 485412 -485412 519334 -509381 4397629349473 7812655 -4397636645895 -333656 4397629166896 -4397629313611 4397629313608 -4397629349470 97217 -97216 35862 4397636780592 1167593 -4397637984047 4397633074298 5332144 -8334455 288223780706293302 -2200618112446 2200618112446 1142572 -1142326 567718 3684 -21392 563729 -1 3 -1113740 1113944 -1114192 255 -3 -288223780706293556 -73 -722450 10 -10 -4398018296155 4398019018607 -722452 7812662 -7812655 722446 -4397629889342 333656 4397637744589 -4397638163605 -61355 4397630036057 -4397630071919 9953 509381 -509380 4397630071919 -2 -4397629596460 4397629596462 -4397630081875 4397630071922 8343673 -8343671 -4397630085937 4397638274617 -4397638270554 4397638416065 312 22337 -4976 -8351865 2 -4397630085938 489474 43013 4397637897122 -154992 145511 -8351866 8188680 17673 -17361 -4977 -4397630085940 4397629363488 -4397628722163 4397629444614 -4397629502614 -583325 4397630085938 -4397629553650 6 -4 -532290 -2994659 4397633080597 8343671 -4398027362207 4398019018537 -4397629536742 -549197 4397630085939 -722451 -4397628831200 -532287 14195 -10115 -4081 -4397629553644 -532289 4397630085937 4397638270554 -8351869 -4397630085934 641325 -58000 -3577984 4397633080593 -4397630071920 475459 -475459 4397628840092 -182577 4397636780593 -7466982 8634578 -4397637984048 -35862 -574608 205 -1113946 -249 -4398019018605 4398018296155 8911356 -8911346 722452 7090210 -419016 -485413 4397630081875 -4397630081874 4397630071920 4397638415595 -4397629562542 4397629562543 8188678 -4397638420127 4397638420128 -4397638420129 4397638420441 -4397638416378 4397638433739 4976 4397637940135 -4397637897058 4397637742066 8334191 -145511 145512 17361 -722448 722450 8356840 -8356839 -109037 4397629553648 -4397629502613 -389515923 389481795 -4397630071743 4397630071744 8343670 -9066121 -4397629363489 532287 -4397630081858 -4079 4397629444609 569310 -579264 485413 -2998721 2998721 -4397637162128 516233 -85360 -1113944 -8911356 722442 -722445 -7090209 -4397629555687 4397629555688 -4397629889344 -439597 61355 -107170 -4397630071922 509382 4397629562540 -8343670 4397638416066 17674 4977 -22337 -8334505 8911129 -8334190 8334190 -4397638420442 4397638442778 -4397629444614 -641325 583325 4397629502613 -389464888 385937939 2994659 -535002 4397629349293 -4397629363488 -528210 8188679 22650 17360 -627311 -569311 -2998720 3484133 -1142572 567964 574608 4398027207511 -4397629555688 4397637906213 4063 -145512 168161 -17674 43077 4397637897058 -8188681 8334189 -4397638437803 4397638420442 -8356842 3526947 -4398019018536 4398019018536 -4397629536741 4397638415414 3008674 -4397628833240 4397636645895 182577 -146715 -74 -4398019018604 -7090212 8188906 -4397638078245 4397629555685 -4397629974704 -9952 4397638415593 -4397629562543 4397637896732 -4397638420128 163185 -4397638438715 4397630081873 -17360 -4397630085939 641326 4397633080598 532288 16907 4397629536741 388932598 4397629363489 4397630081858 4062 569311 -3008674 2998720 4397636719238 4397637984048 288223780703290991 -288223780697958847 288223780697958847 -288223780706293302 288221580088180856 -1114193 -288223780707016078 4398018296165 722515 8188905 4397629555686 -4397629974701 -4397630081873 509380 -33922 -4397638416066 4397629553385 8334192 9480 8356842 -8356841 163184 -8334508 -4397637801453 3008673 -567964 -288228178725312233 4398019018677 7090140 -7090213 8911349 4397629889341 -4397629555686 4397629974703 4397630071921 -4397630036059 439597 4397629596460 -4397630081872 519335 4397629562542 4397638274616 4397638437802 -4397638433739 4397638433738 -17673 4397638429609 -9480 -4397637930654 4397637785143 -4397637887954 4397629553450 -389481795 -8356845 -3008673 -1113943 7090213 -7090140 -72 -97217 -4397630036058 4397630036059 475458 -4397629562540 -509382 4397638425548 -4397637940135 4397637930654 -4397637887578 4397637905251 4397630085940 4 -528214 4397633038436 1113736 -288228178726425963 288228178726425963 -1113734 -254 8188907 -8188906 7090212 -7812662 722445 -4397629889341 4397629889342 -45815 4397629562539 -4397629596462 -4397638429608 -4063 -4397630085936 -4397637785143 -4397637887642 4397637887954 8188681 -14196 -4397638429609 4397638437801 -4397637905514 4397638416361 4397630081870 4397629313611 4397636816455 1113737 -8188904 -4397638274617 4397638420129 313 -4397637930655 4397637948328 -4397637910227 16903 -16907 -4397638415414 -14195 4397638420127 -163185 -4397638274616 532289 -8351868 -4397629349473 4397637162128 4397636300222 -4397636633878 4397637801471 35861 -61354 -1113738 1113738 1113735 -1113729 1113938 -288223780706293375 73 8911346 -4397630081876 -13169 -4397637953304 -4397637905315 4397637905315 4397633080596 -4397637742329 -532291 -17 545134 4397637870931 4397630081874 4397629359426 -4397628840089 6852 -4397636816454 182576 -4397637948186 61354 4397632977082 1113939 -1113940 -8188903 -4397638437801 4397638438715 -4397637742066 4397637887578 4397637846284 4397630071743 -2994660 -4397637725420 4397637870932 526186 -4397637801471 -182576 -473519 -1142325 567717 -567714 571648 -571393 550002 -550005 1113733 -1113732 -1113735 4397630081877 4397638437800 -4397638437802 8334503 -4397637897122 4397637742130 722451 641324 51031 -579245 -549196 2998722 -4397628874011 -4397637474667 -1142322 567715 1113730 -1113736 1113941 252 -1113938 4397629974702 -4397629596465 -4397638416067 4397638416068 -8356840 -4398018296086 4398019018534 -4397630071744 579245 -34128 -4397628840092 4397628840089 4397637886831 571398 -571399 550001 -550002 1113734 253 -4397630081878 4397638416067 17672 722448 -4398019018534 -545117 9952 -6852 -326804 -571398 -1113733 1113732 -4397630071921 475460 -4397638270555 -14015 523396 -4397638416065 -9056641 8334505 -8351863 -4397629444613 -389573923 389464886 -569130 -4397628814291 -3543856 2994658 -475460 288223780706293376 -1113737 -4397637751221 4397637896733 722449 8334502 -4397638442779 4397641424268 -255 254 -516233 -378242 -8188679 58000 -3635984 3577984 4397629553649 4397628722163 -1599102 -4397636830507 -388932598 4397629553644 -4397641269276 133977761 4397507437026 -4397633080595 -722449 -4397632358146 133977764 -130983107 -388932535 388932536 130983115 -133977774 133977775 133977774 -130493251 342354 -3826884 3826884 4397628181080 -4397628181080 4397628531256 7460104 -4397639818241 3818467 8414 -8413 8413 3818470 -424 -7990 -3858405 3866817 -8412 -823814 831804 -7989 4397628539669 -4397632358136 4397641414782 -9056647 8911135 -8188684 8351869 -4397641437432 4397639818240 -4397636823587 7844322 -4397636566485 -93457 4397629596067 8343674 -4398027362145 385937878 4397639825232 -4397636340703 4397629596064 -4397633080594 -385937877 4398019018470 6737651 -4397636333715 -3484530 4397633080594 -4397639818245 -722447 -4397632358147 3524906 -530248 530253 4397629555682 -4397499155296 4397499155296 -4397629477783 4397629477784 9066121 -4397637910490 4397637905512 -4397637888605 4397629536739 -4398019018537 388946793 4397638429610 -3577982 4397633080591 -4397636652747 -550006 -4397630081877 4397638425547 -523395 -9056640 145824 8334193 8356839 51035 385937941 3543854 -2998719 2998719 1113943 -4397629974702 -4397638425547 4397630071923 523395 -523396 -22650 -8334502 -51037 -3526947 4397633080595 2998718 -107171 45816 -312 9079290 -385937941 389464892 -6 4397628814291 4079 -2998718 3008672 8188903 -8188902 -8334192 -4397637744589 -4397630036057 33922 4397629553449 9481 8356841 -168161 -163184 3008671 -4397638433738 -8334503 -4397637905251 4397629553386 8334504 -4397637948328 4397637930967 -4397637742130 -4397630085933 -1098694 -4397638429610 4397637888151 -4397638416361 4397638438698 1113945 -208 4397630036058 
Potential of Offsets elements: 1682.11 248.296 28.296 28.296 28.296 29.296 28.296 28.296 28.296 28.296 28.296 28.296 28.296 28.296 28.296 28.296 28.296 28.296 28.296 28.296 28.296 28.296 28.296 28.296 28.296 28.296 28.296 28.296 28.296 28.296 28.296 28.296 28.296 28.296 1311.62 750.296 28.296 28.296 28.296 28.296 1231.3 28.296 28.296 28.296 81.296 140.296 28.296 28.296 28.296 28.296 28.296 28.296 28.296 28.296 28.296 28.296 28.296 28.296 28.296 28.296 28.296 28.296 28.296 714.296 28.296 28.296 28.296 28.296 28.296 28.296 28.296 28.296 28.296 28.296 35.296 34.296 28.296 28.296 964.296 28.296 28.296 28.296 28.296 28.296 28.296 28.296 28.296 42.296 64.296 37.296 28.296 28.296 28.296 28.296 28.296 28.296 28.296 28.296 252.296 225.296 28.296 28.296 28.296 28.296 44.296 28.296 28.296 28.296 28.296 28.296 28.296 28.296 28.296 32.296 28.296 28.296 144.296 28.296 28.296 28.296 28.296 28.296 28.296 28.296 28.296 28.296 28.296 28.296 28.296 28.296 28.296 28.296 28.296 28.296 28.296 44.296 32.296 28.296 58.296 40.296 32.296 40.296 29.296 28.296 28.296 29.296 127.296 331.296 216.296 291.296 100.296 118.296 106.296 160.296 136.296 376.296 314.296 190.296 106.296 404.296 292.296 127.296 36.296 38.296 268.296 172.296 149.296 304.296 356.296 341.296 198.296 28.296 28.296 28.296 28.296 28.296 28.296 28.296 28.296 28.296 28.296 28.296 42.296 28.296 28.296 28.296 136.296 28.296 28.296 28.296 28.296 28.296 28.296 44.296 28.296 28.296 28.296 28.296 28.296 28.296 28.296 28.296 28.296 28.296 28.296 28.296 28.296 28.296 28.296 33.296 28.296 28.296 77.296 215.296 208.296 460.296 380.296 108.296 116.296 28.296 28.296 28.296 28.296 28.296 28.296 28.296 28.296 28.296 28.296 28.296 28.296 28.296 28.296 28.296 28.296 28.296 28.296 28.296 28.296 28.296 28.296 28.296 28.296 28.296 28.296 28.296 28.296 28.296 28.296 28.296 28.296 28.296 28.296 28.296 28.296 28.296 28.296 28.296 28.296 28.296 28.296 28.296 28.296 28.296 28.296 28.296 28.296 28.296 28.296 28.296 28.296 28.296 28.296 28.296 28.296 28.296 28.296 28.296 28.296 28.296 28.296 28.296 28.296 28.296 28.296 28.296 28.296 28.296 28.296 28.296 28.296 28.296 28.296 28.296 28.296 28.296 28.296 28.296 28.296 28.296 28.296 28.296 28.296 28.296 28.296 28.296 28.296 28.296 28.296 28.296 28.296 28.296 28.296 116.296 28.296 28.296 232.296 28.296 28.296 28.296 28.296 28.296 28.296 28.296 28.296 28.296 28.296 28.296 28.296 28.296 28.296 28.296 28.296 28.296 28.296 28.296 28.296 28.296 28.296 28.296 28.296 28.296 28.296 34.296 100.296 50.296 30.296 28.296 98.296 28.296 40.296 28.296 28.296 56.296 28.296 106.296 148.296 109.296 124.296 63.296 124.296 92.296 124.296 52.296 116.296 145.296 455.296 38.296 37.296 36.296 37.296 43.296 50.296 140.296 43.296 49.296 44.296 46.296 148.296 58.296 82.296 95.296 46.296 190.296 82.296 28.296 28.296 28.296 28.296 28.296 28.296 28.296 28.296 28.296 28.296 28.296 28.296 29.296 28.296 28.296 28.296 28.296 28.296 149.296 28.296 28.296 28.296 28.296 28.296 44.296 28.296 28.296 336.296 28.296 172.296 28.296 28.296 28.296 28.296 29.296 34.296 28.296 28.296 43.296 28.296 28.296 28.296 28.296 28.296 28.296 28.296 28.296 28.296 28.296 28.296 28.296 28.296 28.296 28.296 711.296 28.296 28.296 28.296 28.296 28.296 28.296 28.296 28.296 28.296 28.296 28.296 28.296 28.296 28.296 28.296 28.296 28.296 28.296 28.296 28.296 28.296 28.296 28.296 28.296 28.296 28.296 28.296 28.296 28.296 28.296 28.296 28.296 28.296 28.296 28.296 28.296 28.296 28.296 28.296 28.296 28.296 28.296 28.296 28.296 28.296 28.296 28.296 28.296 28.296 28.296 28.296 28.296 32.296 28.296 28.296 28.296 28.296 28.296 28.296 28.296 28.296 28.296 28.296 28.296 28.296 28.296 28.296 28.296 28.296 28.296 28.296 28.296 28.296 28.296 28.296 28.296 28.296 28.296 28.296 128.296 28.296 28.296 28.296 28.296 28.296 28.296 28.296 28.296 28.296 28.296 28.296 28.296 28.296 28.296 28.296 28.296 28.296 28.296 28.296 28.296 28.296 28.296 28.296 28.296 28.296 28.296 28.296 28.296 28.296 28.296 71.296 136.296 127.296 28.296 64.296 91.296 166.296 28.296 28.296 28.296 28.296 28.296 124.296 119.296 28.296 28.296 88.296 243.296 28.296 28.296 28.296 28.296 117.296 28.296 28.296 39.296 28.296 28.296 28.296 28.296 28.296 28.296 28.296 34.296 28.296 28.296 28.296 28.296 28.296 28.296 28.296 28.296 28.296 28.296 28.296 28.296 28.296 28.296 28.296 28.296 28.296 28.296 28.296 28.296 28.296 28.296 28.296 28.296 28.296 28.296 28.296 28.296 28.296 28.296 28.296 28.296 28.296 28.296 28.296 68.296 28.296 28.296 28.296 28.296 28.296 28.296 28.296 30.296 28.296 28.296 28.296 28.296 130.296 28.296 28.296 60.296 28.296 28.296 28.296 28.296 28.296 28.296 28.296 28.296 28.296 28.296 28.296 28.296 28.296 28.296 28.296 28.296 28.296 28.296 28.296 28.296 28.296 28.296 32.296 28.296 28.296 28.296 28.296 28.296 28.296 28.296 28.296 28.296 28.296 28.296 28.296 28.296 29.296 28.296 28.296 28.296 28.296 28.296 28.296 28.296 28.296 28.296 28.296 28.296 629.296 28.296 28.296 28.296 28.296 28.296 28.296 28.296 28.296 28.296 28.296 28.296 28.296 28.296 28.296 28.296 28.296 28.296 28.296 28.296 28.296 28.296 28.296 28.296 28.296 28.296 28.296 28.296 28.296 28.296 28.296 28.296 29.296 28.296 
rewards of Offsets elements: 1682 220 0 0 0 1 0 0 0 0 0 0 0 0 0 0 0 0 0 0 0 0 0 0 0 0 0 0 0 0 0 0 0 0 1311 722 0 0 0 0 1203 0 0 0 53 112 0 0 0 0 0 0 0 0 0 0 0 0 0 0 0 0 0 686 0 0 0 0 0 0 0 0 0 0 7 6 0 0 936 0 0 0 0 0 0 0 0 14 36 9 0 0 0 0 0 0 0 0 224 197 0 0 0 0 16 0 0 0 0 0 0 0 0 4 0 0 116 0 0 0 0 0 0 0 0 0 0 0 0 0 0 0 0 0 0 16 4 0 30 12 4 12 1 0 0 1 99 303 188 263 72 90 78 132 108 348 286 162 78 376 264 99 8 10 240 144 121 276 328 313 170 0 0 0 0 0 0 0 0 0 0 0 14 0 0 0 108 0 0 0 0 0 0 16 0 0 0 0 0 0 0 0 0 0 0 0 0 0 0 5 0 0 49 187 180 432 352 80 88 0 0 0 0 0 0 0 0 0 0 0 0 0 0 0 0 0 0 0 0 0 0 0 0 0 0 0 0 0 0 0 0 0 0 0 0 0 0 0 0 0 0 0 0 0 0 0 0 0 0 0 0 0 0 0 0 0 0 0 0 0 0 0 0 0 0 0 0 0 0 0 0 0 0 0 0 0 0 0 0 0 0 0 0 0 0 0 0 0 0 0 0 0 0 88 0 0 204 0 0 0 0 0 0 0 0 0 0 0 0 0 0 0 0 0 0 0 0 0 0 0 0 0 0 6 72 22 2 0 70 0 12 0 0 28 0 78 120 81 96 35 96 64 96 24 88 117 427 10 9 8 9 15 22 112 15 21 16 18 120 30 54 67 18 162 54 0 0 0 0 0 0 0 0 0 0 0 0 1 0 0 0 0 0 121 0 0 0 0 0 16 0 0 308 0 144 0 0 0 0 1 6 0 0 15 0 0 0 0 0 0 0 0 0 0 0 0 0 0 0 683 0 0 0 0 0 0 0 0 0 0 0 0 0 0 0 0 0 0 0 0 0 0 0 0 0 0 0 0 0 0 0 0 0 0 0 0 0 0 0 0 0 0 0 0 0 0 0 0 0 0 0 0 4 0 0 0 0 0 0 0 0 0 0 0 0 0 0 0 0 0 0 0 0 0 0 0 0 0 0 100 0 0 0 0 0 0 0 0 0 0 0 0 0 0 0 0 0 0 0 0 0 0 0 0 0 0 0 0 0 0 43 108 99 0 36 63 138 0 0 0 0 0 96 91 0 0 60 215 0 0 0 0 89 0 0 11 0 0 0 0 0 0 0 6 0 0 0 0 0 0 0 0 0 0 0 0 0 0 0 0 0 0 0 0 0 0 0 0 0 0 0 0 0 0 0 0 0 0 0 40 0 0 0 0 0 0 0 2 0 0 0 0 102 0 0 32 0 0 0 0 0 0 0 0 0 0 0 0 0 0 0 0 0 0 0 0 0 0 4 0 0 0 0 0 0 0 0 0 0 0 0 0 1 0 0 0 0 0 0 0 0 0 0 0 601 0 0 0 0 0 0 0 0 0 0 0 0 0 0 0 0 0 0 0 0 0 0 0 0 0 0 0 0 0 0 0 1 0 Printing Sanity3
offset_index value718
offset list size718
reward size718
potential size718
-----------------------------------------------------------------------------------------------------------------------------------------------------------------------------------------------------

DRAM Statistics
 CHANNEL 0
 RQ ROW_BUFFER_HIT:      85276  ROW_BUFFER_MISS:     269961
 DBUS_CONGESTED:        172
 WQ ROW_BUFFER_HIT:      39333  ROW_BUFFER_MISS:     175734  FULL:          0

 AVG_CONGESTED_CYCLE: 4
 All warmup complete: 2
Channel 0 Bank busy for read cycles: 0
Channel 0 Bank busy for write cycles: 0
Channel 0
Rank 0
0banks busy for read cycles: 377062336
0banks busy for write cycles: 101369
1banks busy for read cycles: 24611151
1banks busy for write cycles: 13941293
2banks busy for read cycles: 6118541
2banks busy for write cycles: 3645629
3banks busy for read cycles: 1559227
3banks busy for write cycles: 1570533
4banks busy for read cycles: 445155
4banks busy for write cycles: 1045706
5banks busy for read cycles: 115740
5banks busy for write cycles: 766866
6banks busy for read cycles: 52366
6banks busy for write cycles: 569989
7banks busy for read cycles: 34173
7banks busy for write cycles: 428252
8banks busy for read cycles: 40035
8banks busy for write cycles: 389448

CPU 0 Branch Prediction Accuracy: 99.8315% MPKI: 0.301655 Average ROB Occupancy at Mispredict: 41.598
Branch types
NOT_BRANCH: 164189943 82.095%
BRANCH_DIRECT_JUMP: 1763864 0.881932%
BRANCH_INDIRECT: 9441713 4.72086%
BRANCH_CONDITIONAL: 18234424 9.11721%
BRANCH_DIRECT_CALL: 2503051 1.25153%
BRANCH_INDIRECT_CALL: 681117 0.340558%
BRANCH_RETURN: 3185563 1.59278%
BRANCH_OTHER: 0 0%

DRAM PAGES: 1048576
Allocated PAGES: 6122
