
*** ChampSim Multicore Out-of-Order Simulator ***

Warmup Instructions: 50000000
Simulation Instructions: 200000000
Number of CPUs: 1
LLC sets: 2048
LLC ways: 16
Off-chip DRAM Size: 4096 MB Channels: 1 Width: 64-bit Data Rate: 6400 MT/s
CPU 0 runs traces/spec2k17/srv_59.champsimtrace.xz
.xz
BTB has LRU replacement policy
ITLB has LRU replacement policy
DTLB has LRU replacement policy
STLB has LRU replacement policy
L1I has LRU replacement policy
L1D has LRU replacement policy
Initialize SRRIP state for L2C
Initialize DRRIP state for LLC
Offsets elements: 
Potential of Offsets elements: 
rewards of Offsets elements: 
Printing Sanity1
offset list size2462
Offsets elements: 
Potential of Offsets elements: 
rewards of Offsets elements: 0 1223 345 0 0 1071 0 0 0 857 0 0 0 0 0 0 0 0 0 0 0 34 0 0 0 0 144 0 0 0 0 0 0 0 0 0 0 0 0 66 27 0 474 0 0 0 0 0 0 0 0 36 0 0 0 0 0 0 0 0 317 254 0 0 723 426 0 0 0 0 129 0 0 0 0 7 0 0 0 0 0 0 0 13 0 225 0 0 0 0 0 0 0 0 26 0 0 0 0 319 0 0 0 1 0 0 0 128 2 0 0 9 0 0 0 0 0 0 0 0 0 0 0 0 394 0 0 0 0 411 0 0 0 0 0 0 0 0 98 0 0 250 0 0 0 0 0 0 0 0 0 0 0 0 0 0 0 0 0 0 1 0 0 0 57 0 0 0 0 0 0 0 0 0 0 0 0 0 0 0 0 0 270 0 0 0 4 0 0 0 0 0 0 0 0 0 0 0 0 0 0 0 0 0 0 0 0 0 0 0 0 491 0 0 0 0 0 166 0 0 0 0 65 183 845 0 0 126 0 80 0 0 0 0 0 139 0 137 0 0 0 0 0 0 41 0 0 0 0 0 266 0 0 0 10 1 0 0 90 0 0 0 0 0 0 0 0 0 0 0 0 0 0 0 0 0 0 0 0 0 0 0 0 0 107 0 0 0 0 0 0 0 0 0 0 0 456 0 0 0 0 0 0 0 0 0 0 0 0 0 0 0 304 0 0 0 0 0 0 0 0 0 0 0 0 0 0 0 313 0 158 0 0 0 0 0 0 0 0 0 0 0 0 0 170 0 0 0 0 0 0 0 0 71 25 0 0 0 0 0 0 0 0 0 0 0 0 0 0 0 0 0 0 0 0 224 0 0 0 0 0 0 0 0 0 0 0 0 0 0 0 0 0 0 0 0 0 0 0 0 0 86 1 122 93 15 8 0 0 0 0 0 0 89 0 0 0 0 0 0 0 0 0 14 0 0 0 0 0 0 0 0 0 0 0 0 0 0 0 0 0 0 0 0 0 0 21 0 0 0 215 0 0 0 156 123 0 0 0 0 0 0 0 0 182 0 0 0 0 0 135 0 0 0 0 0 45 190 151 115 0 0 0 0 53 0 0 0 0 19 72 0 51 0 0 18 0 0 0 0 0 0 23 32 0 0 0 0 4 0 48 16 0 8 0 0 0 48 272 150 0 0 1 0 0 0 0 1 0 0 0 1 0 0 0 39 0 0 0 32 0 0 0 0 0 0 140 0 0 0 3 0 0 0 0 0 0 0 0 0 0 0 0 0 0 18 9 4 0 0 30 169 0 0 0 0 0 0 0 0 0 0 0 64 22 0 0 0 18 0 0 0 0 0 24 0 0 0 1 0 4 0 0 0 0 0 0 0 442 0 0 14 0 0 27 0 0 0 0 52 0 0 0 0 0 51 0 0 0 0 0 0 0 0 0 0 0 0 34 0 0 0 0 0 0 0 0 0 0 0 0 0 0 0 0 0 0 0 0 0 0 0 0 0 0 0 0 0 0 0 73 0 0 254 0 0 0 0 0 0 0 0 0 0 0 299 0 0 0 0 0 0 298 0 0 0 0 0 0 0 208 0 0 0 0 2 0 0 0 0 0 0 0 0 0 0 0 0 0 0 0 0 0 0 0 118 99 88 88 0 0 1 0 0 0 0 0 0 0 0 0 0 0 0 0 0 0 0 0 0 0 0 0 0 0 0 0 0 0 0 0 0 0 0 0 0 0 0 0 0 0 0 0 0 0 0 0 0 0 0 0 0 0 0 0 6 71 0 0 0 0 0 0 0 0 0 0 0 0 0 0 0 0 0 0 0 0 0 0 0 0 0 0 0 0 0 0 0 0 0 0 0 0 0 0 0 0 0 0 0 0 0 0 0 0 0 0 0 0 0 0 0 10 0 0 0 0 0 0 0 0 0 0 0 0 0 0 0 0 0 0 0 0 0 0 0 0 0 0 54 129 0 0 0 57 0 95 0 0 0 0 43 157 0 0 0 0 0 0 0 0 0 0 0 0 0 161 0 0 0 0 0 0 129 0 0 0 0 0 0 0 0 0 0 426 0 0 0 0 0 0 0 0 0 0 0 0 0 46 0 0 0 0 0 0 0 0 335 0 0 0 0 111 0 0 0 0 0 0 0 0 0 0 0 0 0 0 0 0 0 0 0 0 0 0 0 0 0 0 0 0 0 0 0 0 0 0 0 0 0 0 0 0 0 0 0 0 0 0 0 0 0 0 0 0 0 0 0 0 0 40 0 0 0 0 0 0 0 0 0 0 0 0 0 0 0 0 0 0 0 0 0 0 0 0 0 0 0 0 0 0 0 0 0 0 0 0 0 0 0 0 0 0 0 0 0 0 0 0 0 0 0 0 0 0 0 0 0 0 0 0 0 0 0 0 0 0 0 0 0 14 31 0 0 0 0 42 0 0 0 120 0 0 0 0 0 0 0 0 0 0 0 0 0 0 0 0 0 0 0 0 0 0 0 0 0 0 0 0 0 0 52 0 0 0 0 36 0 0 0 0 0 0 0 0 0 0 160 0 0 0 0 0 0 65 0 0 0 0 0 0 0 0 170 50 0 0 0 0 0 0 0 0 0 0 0 0 0 0 0 165 0 0 0 0 0 0 0 0 0 0 0 0 0 0 51 0 0 0 0 0 0 0 0 0 108 0 0 0 0 0 0 0 0 0 0 0 0 0 0 0 0 0 0 0 0 0 0 0 0 30 46 0 49 0 0 0 0 0 0 0 0 0 0 0 136 212 102 37 131 0 0 0 0 0 0 0 0 0 0 0 0 0 0 108 0 0 0 0 0 0 0 0 0 0 0 0 0 0 0 0 0 0 0 0 0 0 0 0 0 0 0 0 0 0 0 0 0 0 0 0 0 0 0 0 0 0 0 0 0 0 0 44 0 0 0 0 0 0 72 30 0 0 0 0 146 0 0 0 0 0 0 0 65 0 0 61 0 0 90 130 0 0 0 0 0 0 0 0 0 0 20 0 0 0 0 0 0 0 0 0 0 0 0 0 0 0 0 0 0 0 0 0 0 0 0 0 0 0 0 0 0 0 0 0 0 0 0 0 0 0 0 0 0 0 0 0 0 0 40 0 0 0 0 0 0 3 0 0 0 0 0 0 0 0 0 0 0 0 0 0 0 0 0 0 0 0 0 0 0 0 0 0 0 0 0 0 0 0 0 0 0 0 0 0 0 0 0 0 0 0 0 0 0 0 0 0 0 0 0 0 0 0 0 0 0 0 0 0 0 0 0 0 0 0 0 0 0 24 0 0 95 0 69 0 0 0 0 0 0 0 0 0 0 0 0 0 0 0 0 0 0 0 0 0 0 0 0 0 0 0 0 0 0 0 0 0 0 0 0 0 0 0 0 15 0 0 0 0 0 0 0 0 0 0 0 0 0 0 0 0 0 0 0 0 0 0 0 0 0 0 0 0 0 0 0 0 0 0 61 0 0 0 0 0 0 0 0 0 0 0 0 0 0 0 0 0 0 23 0 0 0 0 0 0 1 0 0 52 18 0 0 0 0 0 0 0 0 0 0 0 0 0 0 0 0 0 0 0 0 0 0 0 0 0 0 0 8 0 0 0 0 0 0 0 0 0 0 0 0 0 0 0 0 0 0 0 0 0 0 0 0 0 0 0 0 0 0 0 0 0 0 0 0 0 0 0 0 0 0 0 0 0 0 0 0 0 0 0 0 0 0 0 0 0 0 0 0 0 0 0 138 0 0 0 0 0 0 0 0 0 0 0 0 0 0 0 0 0 116 0 0 0 0 0 0 0 0 0 0 0 0 0 0 0 0 0 148 0 0 0 0 0 0 0 0 0 0 0 0 0 1 0 0 0 0 0 0 0 0 0 0 0 0 0 0 0 0 0 0 0 0 0 0 0 0 0 0 0 0 0 0 0 0 0 0 0 0 0 0 0 0 8 0 0 0 0 0 0 0 0 0 61 0 26 0 0 0 0 0 0 0 304 0 0 0 0 0 0 0 0 0 0 0 0 0 0 0 0 0 0 0 0 0 0 0 0 0 0 0 0 0 0 0 0 0 0 0 0 0 0 0 0 0 0 0 0 0 0 0 0 0 0 0 0 0 0 0 0 0 0 0 0 0 0 42 0 0 0 0 0 1 0 0 0 0 0 0 0 0 0 0 0 0 194 0 0 0 0 0 0 0 0 0 0 54 0 0 0 0 0 0 0 0 0 0 0 10 0 0 0 0 0 0 0 0 0 0 0 0 0 0 0 0 0 0 0 0 0 0 0 0 0 0 0 0 0 0 0 0 0 0 0 0 0 0 0 5 0 0 0 0 0 0 0 0 0 0 0 0 0 0 0 0 112 0 0 0 0 0 0 0 0 0 0 0 0 0 0 0 0 0 0 0 0 0 0 0 0 0 0 0 38 0 0 0 0 0 0 0 0 8 0 0 0 0 0 0 0 0 0 1 0 0 0 0 12 0 0 0 0 0 133 0 0 160 0 0 0 0 0 0 98 168 0 0 0 0 0 0 0 0 0 0 0 0 0 0 0 0 0 0 0 0 0 0 0 0 0 0 0 0 0 0 0 0 0 0 0 0 3 0 0 4 0 0 0 0 0 0 0 0 0 0 0 6 16 0 0 0 0 0 0 0 0 4 0 12 0 0 0 0 0 0 0 0 0 0 0 0 0 0 13 0 0 0 0 0 0 0 0 0 0 0 0 0 0 0 0 0 0 0 0 34 0 0 0 0 79 0 0 0 0 0 0 0 0 0 0 0 0 0 0 0 0 0 0 199 0 0 0 0 0 0 0 58 0 0 0 0 0 0 0 0 0 0 0 0 0 0 60 134 0 0 0 0 0 0 0 0 0 0 0 0 0 0 0 0 0 0 0 0 2 0 0 0 0 0 0 0 0 0 0 0 68 0 38 0 0 0 0 0 0 0 0 0 0 0 0 0 0 0 0 0 0 0 0 0 0 0 0 0 0 7 0 0 0 0 0 0 0 64 0 0 0 0 0 0 0 0 0 0 0 0 0 0 0 0 0 0 3 0 0 0 0 0 0 0 0 144 0 0 0 0 0 0 0 0 0 0 0 0 0 0 0 0 0 0 29 0 0 30 0 0 0 0 0 0 0 0 0 0 0 0 0 0 0 0 0 0 0 0 0 0 0 0 0 0 0 0 0 0 81 0 0 154 0 0 0 82 0 0 0 0 0 0 0 0 0 0 0 0 0 0 0 0 0 0 0 0 0 0 30 0 0 0 0 0 0 0 0 0 23 20 0 0 0 0 0 0 0 0 0 0 0 0 0 0 0 0 0 32 74 0 0 0 0 0 0 87 0 0 0 0 0 0 0 0 0 0 0 0 0 0 0 0 0 0 0 0 0 0 0 0 0 0 0 0 0 0 0 0 0 0 0 0 0 0 0 0 0 0 0 0 0 0 0 0 0 0 0 0 17 0 0 0 0 0 0 0 0 0 0 0 0 0 0 0 0 0 0 0 0 0 0 0 0 0 0 0 0 0 0 173 4 0 0 0 0 0 0 0 
Printing Sanity2
Heartbeat CPU 0 instructions: 10000001 cycles: 2964395 heartbeat IPC: 3.37337 cumulative IPC: 3.37337 (Simulation time: 0 hr 0 min 28 sec) 
Heartbeat CPU 0 instructions: 20000003 cycles: 5804417 heartbeat IPC: 3.5211 cumulative IPC: 3.44565 (Simulation time: 0 hr 0 min 52 sec) 
Heartbeat CPU 0 instructions: 30000002 cycles: 8603056 heartbeat IPC: 3.57316 cumulative IPC: 3.48713 (Simulation time: 0 hr 1 min 16 sec) 
*** Reached end of trace for Core: 0 Repeating trace: traces/spec2k17/srv_59.champsimtrace.xz
Heartbeat CPU 0 instructions: 40000000 cycles: 11547266 heartbeat IPC: 3.3965 cumulative IPC: 3.46402 (Simulation time: 0 hr 1 min 45 sec) 
Heartbeat CPU 0 instructions: 50000003 cycles: 14413759 heartbeat IPC: 3.48858 cumulative IPC: 3.46891 (Simulation time: 0 hr 2 min 11 sec) 

Warmup complete CPU 0 instructions: 50000003 cycles: 14413759 (Simulation time: 0 hr 2 min 11 sec) 

Heartbeat CPU 0 instructions: 60000001 cycles: 33370175 heartbeat IPC: 0.527526 cumulative IPC: 0.527526 (Simulation time: 0 hr 2 min 43 sec) 
*** Reached end of trace for Core: 0 Repeating trace: traces/spec2k17/srv_59.champsimtrace.xz
Heartbeat CPU 0 instructions: 70000002 cycles: 47290549 heartbeat IPC: 0.718372 cumulative IPC: 0.608332 (Simulation time: 0 hr 3 min 16 sec) 
Heartbeat CPU 0 instructions: 80000001 cycles: 63259884 heartbeat IPC: 0.6262 cumulative IPC: 0.614174 (Simulation time: 0 hr 3 min 49 sec) 
Heartbeat CPU 0 instructions: 90000000 cycles: 81965739 heartbeat IPC: 0.534592 cumulative IPC: 0.592137 (Simulation time: 0 hr 4 min 21 sec) 
*** Reached end of trace for Core: 0 Repeating trace: traces/spec2k17/srv_59.champsimtrace.xz
Heartbeat CPU 0 instructions: 100000001 cycles: 97005099 heartbeat IPC: 0.664922 cumulative IPC: 0.60539 (Simulation time: 0 hr 4 min 54 sec) 
Heartbeat CPU 0 instructions: 110000000 cycles: 111916851 heartbeat IPC: 0.670612 cumulative IPC: 0.615365 (Simulation time: 0 hr 5 min 28 sec) 
Heartbeat CPU 0 instructions: 120000000 cycles: 130855442 heartbeat IPC: 0.528022 cumulative IPC: 0.601159 (Simulation time: 0 hr 6 min 0 sec) 
*** Reached end of trace for Core: 0 Repeating trace: traces/spec2k17/srv_59.champsimtrace.xz
Heartbeat CPU 0 instructions: 130000001 cycles: 146713924 heartbeat IPC: 0.630577 cumulative IPC: 0.604686 (Simulation time: 0 hr 6 min 33 sec) 
Heartbeat CPU 0 instructions: 140000003 cycles: 160743558 heartbeat IPC: 0.712777 cumulative IPC: 0.615049 (Simulation time: 0 hr 7 min 7 sec) 
Heartbeat CPU 0 instructions: 150000003 cycles: 179484602 heartbeat IPC: 0.533588 cumulative IPC: 0.605801 (Simulation time: 0 hr 7 min 40 sec) 
*** Reached end of trace for Core: 0 Repeating trace: traces/spec2k17/srv_59.champsimtrace.xz
Heartbeat CPU 0 instructions: 160000000 cycles: 196417651 heartbeat IPC: 0.590561 cumulative IPC: 0.604383 (Simulation time: 0 hr 8 min 13 sec) 
Heartbeat CPU 0 instructions: 170000000 cycles: 209322912 heartbeat IPC: 0.774878 cumulative IPC: 0.615671 (Simulation time: 0 hr 8 min 46 sec) 
Heartbeat CPU 0 instructions: 180000000 cycles: 228214830 heartbeat IPC: 0.529327 cumulative IPC: 0.608042 (Simulation time: 0 hr 9 min 19 sec) 
*** Reached end of trace for Core: 0 Repeating trace: traces/spec2k17/srv_59.champsimtrace.xz
Heartbeat CPU 0 instructions: 190000000 cycles: 246121404 heartbeat IPC: 0.558454 cumulative IPC: 0.60421 (Simulation time: 0 hr 9 min 52 sec) 
Heartbeat CPU 0 instructions: 200000000 cycles: 257978003 heartbeat IPC: 0.843412 cumulative IPC: 0.615854 (Simulation time: 0 hr 10 min 26 sec) 
Heartbeat CPU 0 instructions: 210000002 cycles: 276897975 heartbeat IPC: 0.528542 cumulative IPC: 0.60956 (Simulation time: 0 hr 10 min 58 sec) 
*** Reached end of trace for Core: 0 Repeating trace: traces/spec2k17/srv_59.champsimtrace.xz
Heartbeat CPU 0 instructions: 220000000 cycles: 295641341 heartbeat IPC: 0.533522 cumulative IPC: 0.604493 (Simulation time: 0 hr 11 min 31 sec) 
Heartbeat CPU 0 instructions: 230000003 cycles: 306742104 heartbeat IPC: 0.900839 cumulative IPC: 0.615746 (Simulation time: 0 hr 12 min 5 sec) 
Heartbeat CPU 0 instructions: 240000000 cycles: 325543269 heartbeat IPC: 0.531882 cumulative IPC: 0.610678 (Simulation time: 0 hr 12 min 37 sec) 
*** Reached end of trace for Core: 0 Repeating trace: traces/spec2k17/srv_59.champsimtrace.xz
Heartbeat CPU 0 instructions: 250000001 cycles: 344228335 heartbeat IPC: 0.535187 cumulative IPC: 0.606401 (Simulation time: 0 hr 13 min 9 sec) 
Finished CPU 0 instructions: 200000000 cycles: 329814577 cumulative IPC: 0.606401 (Simulation time: 0 hr 13 min 9 sec) 

ChampSim completed all CPUs

Region of Interest Statistics

CPU 0 cumulative IPC: 0.606401 instructions: 200000000 cycles: 329814577
ITLB TOTAL     ACCESS:   36235498  HIT:   35634080  MISS:     601418  HIT %:    98.3403  MISS %:    1.65975   MPKI: 3.00709
ITLB LOAD TRANSLATION ACCESS:   36235498  HIT:   35634080  MISS:     601418  HIT %:    98.3403  MISS %:    1.65975   MPKI: 3.00709
ITLB PREFETCH  REQUESTED:          0  ISSUED:          0  USEFUL:          0  USELESS:          0
ITLB USEFUL LOAD PREFETCHES:          0 PREFETCH ISSUED TO LOWER LEVEL:          0  ACCURACY: -nan
ITLB TIMELY PREFETCHES:          0 LATE PREFETCHES: 0 DROPPED PREFETCHES: 0
ITLB PREFETCHES SAME FILL-ORIGIN LEVEL: 0 DIFFERENT FILL-ORIGIN LEVEL: 0
ITLB AVERAGE MISS LATENCY: 9.02982 cycles
ITLB RQ	ACCESS:   40783409	FORWARD:          0	MERGED:    4357471	TO_CACHE:   36425938

DTLB TOTAL     ACCESS:   42645338  HIT:   41939831  MISS:     705507  HIT %:    98.3456  MISS %:    1.65436   MPKI: 3.52753
DTLB LOAD TRANSLATION ACCESS:   42645338  HIT:   41939831  MISS:     705507  HIT %:    98.3456  MISS %:    1.65436   MPKI: 3.52753
DTLB PREFETCH  REQUESTED:          0  ISSUED:          0  USEFUL:          0  USELESS:          0
DTLB USEFUL LOAD PREFETCHES:          0 PREFETCH ISSUED TO LOWER LEVEL:          0  ACCURACY: -nan
DTLB TIMELY PREFETCHES:          0 LATE PREFETCHES: 0 DROPPED PREFETCHES: 0
DTLB PREFETCHES SAME FILL-ORIGIN LEVEL: 0 DIFFERENT FILL-ORIGIN LEVEL: 0
DTLB AVERAGE MISS LATENCY: 9.03351 cycles
DTLB RQ	ACCESS:   58415697	FORWARD:          0	MERGED:   15739770	TO_CACHE:   42675927

STLB TOTAL     ACCESS:   29302976  HIT:   29302267  MISS:        709  HIT %:    99.9976  MISS %: 0.00241955   MPKI: 0.003545
STLB LOAD TRANSLATION ACCESS:    1306925  HIT:    1306222  MISS:        703  HIT %:    99.9462  MISS %:  0.0537904   MPKI: 0.003515
STLB TRANSLATION FROM L1D PREFETCHER ACCESS:   27996051  HIT:   27996045  MISS:          6  HIT %:        100  MISS %: 2.14316e-05   MPKI: 3e-05
STLB PREFETCH  REQUESTED:          0  ISSUED:          0  USEFUL:          6  USELESS:          0
STLB USEFUL LOAD PREFETCHES:          6 PREFETCH ISSUED TO LOWER LEVEL:          0  ACCURACY: inf
STLB TIMELY PREFETCHES:          6 LATE PREFETCHES: 0 DROPPED PREFETCHES: 52407
STLB PREFETCHES SAME FILL-ORIGIN LEVEL: 0 DIFFERENT FILL-ORIGIN LEVEL: 0
STLB AVERAGE MISS LATENCY: 67.9126 cycles
STLB RQ	ACCESS:   37075758	FORWARD:          0	MERGED:    7720375	TO_CACHE:   29355383

STLB Hit, L1D data hit: 0
STLB Hit, L2C data hit: 0
STLB Hit, LLC data hit: 0
STLB Hit, LLC data miss: 0
STLB STLB hints to L2: 0
L1D TOTAL     ACCESS:   93580689  HIT:   91688764  MISS:    1891925  HIT %:    97.9783  MISS %:     2.0217   MPKI: 9.45963
L1D LOAD      ACCESS:   37331561  HIT:   36481445  MISS:     850116  HIT %:    97.7228  MISS %:     2.2772   MPKI: 4.25058
L1D RFO       ACCESS:   20721265  HIT:   20438046  MISS:     283219  HIT %:    98.6332  MISS %:     1.3668   MPKI: 1.4161
L1D PREFETCH  ACCESS:   35527863  HIT:   34769273  MISS:     758590  HIT %:    97.8648  MISS %:     2.1352   MPKI: 3.79295
AGUS PREFETCH L1 MISS: 0
L1D PREFETCH  REQUESTED:   73127048  ISSUED:   73126191  USEFUL:     201441  USELESS:     557140
L1D USEFUL LOAD PREFETCHES:     201441 PREFETCH ISSUED TO LOWER LEVEL:     833931  ACCURACY: 24.1556
L1D TIMELY PREFETCHES:     201441 LATE PREFETCHES: 64863 DROPPED PREFETCHES: 52407
L1D PREFETCHES SAME FILL-ORIGIN LEVEL: 833931 DIFFERENT FILL-ORIGIN LEVEL: 0
L1D AVERAGE MISS LATENCY: 7.16353e+06 cycles
L1D RQ	ACCESS:   52189118	FORWARD:          0	MERGED:   14609618	TO_CACHE:   37358214
L1D WQ	ACCESS:   21284228	FORWARD:     268175	MERGED:     226745	TO_CACHE:   21057483
L1D PQ	ACCESS:   37357358	FORWARD:          0	MERGED:    1541636	TO_CACHE:   35768833

L1D UNIQUE REGIONS ACCESSED: 0
L1D REGIONS CONFLICTS: 0
L1D Cross Page Prefetch Requests: 860798
L1D Same Page Prefetch Requests: 43946130
L1D ROI Sum of L1D PQ occupancy: 465818037
L1D PREFETCHES PUSHED FROM L2C: 0
L1I TOTAL     ACCESS:   40388091  HIT:   38145968  MISS:    2242123  HIT %:    94.4486  MISS %:    5.55145   MPKI: 11.2106
L1I LOAD      ACCESS:   40388091  HIT:   38145968  MISS:    2242123  HIT %:    94.4486  MISS %:    5.55145   MPKI: 11.2106
L1I PREFETCH  REQUESTED:          0  ISSUED:          0  USEFUL:          0  USELESS:          0
L1I USEFUL LOAD PREFETCHES:          0 PREFETCH ISSUED TO LOWER LEVEL:          0  ACCURACY: -nan
L1I TIMELY PREFETCHES:          0 LATE PREFETCHES: 0 DROPPED PREFETCHES: 0
L1I PREFETCHES SAME FILL-ORIGIN LEVEL: 0 DIFFERENT FILL-ORIGIN LEVEL: 0
L1I AVERAGE MISS LATENCY: 19.604 cycles
L1I RQ	ACCESS:   63567303	FORWARD:          0	MERGED:   22783894	TO_CACHE:   40783409

BTB TOTAL     ACCESS:   34458816  HIT:   30772877  MISS:    3685939  HIT %:    89.3033  MISS %:    10.6967   MPKI: 18.4297
BTB BRANCH_DIRECT_JUMP	ACCESS:    3454569  HIT:    3286605  MISS:     167964
BTB BRANCH_INDIRECT	ACCESS:   13788073  HIT:   12683450  MISS:    1104623
BTB BRANCH_CONDITIONAL	ACCESS:    7883610  HIT:    7670723  MISS:     212887
BTB BRANCH_DIRECT_CALL	ACCESS:    2450867  HIT:    2153293  MISS:     297574
BTB BRANCH_INDIRECT_CALL	ACCESS:    2215440  HIT:    1977201  MISS:     238239
BTB BRANCH_RETURN	ACCESS:    4666257  HIT:    3001605  MISS:    1664652
BTB BRANCH_OTHER ACCESS:          0  HIT:          0  MISS:          0

L2C TOTAL     ACCESS:    4853340  HIT:    4108770  MISS:     744570  HIT %:    84.6586  MISS %:    15.3414   MPKI: 3.72285
L2C LOAD      ACCESS:    3027232  HIT:    2499359  MISS:     527873  HIT %:    82.5625  MISS %:    17.4375   MPKI: 2.63937
L2C DATA LOAD MPKI: 0.56825
L2C INSTRUCTION LOAD MPKI: 2.07111
L2C RFO       ACCESS:     272741  HIT:     202107  MISS:      70634  HIT %:    74.1022  MISS %:    25.8978   MPKI: 0.35317
L2C PREFETCH  ACCESS:     833931  HIT:     699614  MISS:     134317  HIT %:    83.8935  MISS %:    16.1065   MPKI: 0.671585
AGUS PREFETCH L1 MISS: 0
L2C DATA PREFETCH MPKI: 0.671585
L2C INSTRUCTION PREFETCH MPKI: 0
L2C WRITEBACK ACCESS:     567793  HIT:     558327  MISS:       9466  HIT %:    98.3328  MISS %:    1.66716   MPKI: 0.04733
L2C LOAD TRANSLATION ACCESS:       1048  HIT:        144  MISS:        904  HIT %:    13.7405  MISS %:    86.2595   MPKI: 0.00452
L2C TRANSLATION FROM L1D PREFETCHER ACCESS:     150595  HIT:     149219  MISS:       1376  HIT %:    99.0863  MISS %:   0.913709   MPKI: 0.00688
L2C PREFETCH  REQUESTED:          0  ISSUED:          0  USEFUL:      12584  USELESS:     123050
L2C USEFUL LOAD PREFETCHES:      12584 PREFETCH ISSUED TO LOWER LEVEL:     134317  ACCURACY: 9.36888
L2C TIMELY PREFETCHES:      12584 LATE PREFETCHES: 0 DROPPED PREFETCHES: 0
L2C PREFETCHES SAME FILL-ORIGIN LEVEL: 0 DIFFERENT FILL-ORIGIN LEVEL: 0
L2C AVERAGE MISS LATENCY: 29.7308 cycles
L2C RQ	ACCESS:    3451760	FORWARD:          0	MERGED:          0	TO_CACHE:    3451616
L2C WQ	ACCESS:     567793	FORWARD:        144	MERGED:          0	TO_CACHE:     567793
L2C PQ	ACCESS:     833931	FORWARD:          0	MERGED:          0	TO_CACHE:     833931

L2C Instructions Evicting Data 164009
L2C Translations Evicting Data 1231
L2C Data Evicting Data 157510
L2C Instructions Evicting Instructions 248953
L2C Translations Evicting Instructions 1028
L2C Data Evicting Instructions 160128
L2C Instructions Evicting Translations 1261
L2C Translations Evicting Translations 21
L2C Data Evicting Translations 963
L2C Dense regions hint from L2: 0
PSCL5 TOTAL     ACCESS:      53116  HIT:      53116  MISS:          0  HIT %:        100  MISS %:          0   MPKI: 0
PSCL5 LOAD TRANSLATION ACCESS:        703  HIT:        703  MISS:          0  HIT %:        100  MISS %:          0   MPKI: 0
PSCL5 TRANSLATION FROM L1D PREFETCHER ACCESS:      52413  HIT:      52413  MISS:          0  HIT %:        100  MISS %:          0   MPKI: 0
PSCL5 PREFETCH  REQUESTED:          0  ISSUED:          0  USEFUL:          0  USELESS:          0
PSCL5 USEFUL LOAD PREFETCHES:          0 PREFETCH ISSUED TO LOWER LEVEL:          0  ACCURACY: -nan
PSCL5 TIMELY PREFETCHES:          0 LATE PREFETCHES: 0 DROPPED PREFETCHES: 0
PSCL5 PREFETCHES SAME FILL-ORIGIN LEVEL: 0 DIFFERENT FILL-ORIGIN LEVEL: 0

PSCL4 TOTAL     ACCESS:      53116  HIT:      53116  MISS:          0  HIT %:        100  MISS %:          0   MPKI: 0
PSCL4 LOAD TRANSLATION ACCESS:        703  HIT:        703  MISS:          0  HIT %:        100  MISS %:          0   MPKI: 0
PSCL4 TRANSLATION FROM L1D PREFETCHER ACCESS:      52413  HIT:      52413  MISS:          0  HIT %:        100  MISS %:          0   MPKI: 0
PSCL4 PREFETCH  REQUESTED:          0  ISSUED:          0  USEFUL:          0  USELESS:          0
PSCL4 USEFUL LOAD PREFETCHES:          0 PREFETCH ISSUED TO LOWER LEVEL:          0  ACCURACY: -nan
PSCL4 TIMELY PREFETCHES:          0 LATE PREFETCHES: 0 DROPPED PREFETCHES: 0
PSCL4 PREFETCHES SAME FILL-ORIGIN LEVEL: 0 DIFFERENT FILL-ORIGIN LEVEL: 0

PSCL3 TOTAL     ACCESS:       4942  HIT:       4820  MISS:        122  HIT %:    97.5314  MISS %:    2.46864   MPKI: 0.00061
PSCL3 LOAD TRANSLATION ACCESS:        588  HIT:        466  MISS:        122  HIT %:    79.2517  MISS %:    20.7483   MPKI: 0.00061
PSCL3 TRANSLATION FROM L1D PREFETCHER ACCESS:       4354  HIT:       4354  MISS:          0  HIT %:        100  MISS %:          0   MPKI: 0
PSCL3 PREFETCH  REQUESTED:          0  ISSUED:          0  USEFUL:          0  USELESS:          0
PSCL3 USEFUL LOAD PREFETCHES:          0 PREFETCH ISSUED TO LOWER LEVEL:          0  ACCURACY: -nan
PSCL3 TIMELY PREFETCHES:          0 LATE PREFETCHES: 0 DROPPED PREFETCHES: 0
PSCL3 PREFETCHES SAME FILL-ORIGIN LEVEL: 0 DIFFERENT FILL-ORIGIN LEVEL: 0

PSCL2 TOTAL     ACCESS:       2566  HIT:       2331  MISS:        235  HIT %:    90.8418  MISS %:    9.15822   MPKI: 0.001175
PSCL2 LOAD TRANSLATION ACCESS:        709  HIT:        474  MISS:        235  HIT %:    66.8547  MISS %:    33.1453   MPKI: 0.001175
PSCL2 TRANSLATION FROM L1D PREFETCHER ACCESS:       1857  HIT:       1857  MISS:          0  HIT %:        100  MISS %:          0   MPKI: 0
PSCL2 PREFETCH  REQUESTED:          0  ISSUED:          0  USEFUL:          0  USELESS:          0
PSCL2 USEFUL LOAD PREFETCHES:          0 PREFETCH ISSUED TO LOWER LEVEL:          0  ACCURACY: -nan
PSCL2 TIMELY PREFETCHES:          0 LATE PREFETCHES: 0 DROPPED PREFETCHES: 0
PSCL2 PREFETCHES SAME FILL-ORIGIN LEVEL: 0 DIFFERENT FILL-ORIGIN LEVEL: 0

LLC TOTAL     ACCESS:     851452  HIT:     850923  MISS:        529  HIT %:    99.9379  MISS %:  0.0621292   MPKI: 0.002645
LLC LOAD      ACCESS:     527873  HIT:     527591  MISS:        282  HIT %:    99.9466  MISS %:  0.0534219   MPKI: 0.00141
LLC RFO       ACCESS:      70634  HIT:      70634  MISS:          0  HIT %:        100  MISS %:          0   MPKI: 0
LLC PREFETCH  ACCESS:     134310  HIT:     134078  MISS:        232  HIT %:    99.8273  MISS %:   0.172735   MPKI: 0.00116
AGUS PREFETCH L1 MISS: 0
LLC WRITEBACK ACCESS:     116355  HIT:     116354  MISS:          1  HIT %:    99.9991  MISS %: 0.000859439   MPKI: 5e-06
LLC LOAD TRANSLATION ACCESS:        904  HIT:        890  MISS:         14  HIT %:    98.4513  MISS %:    1.54867   MPKI: 7e-05
LLC TRANSLATION FROM L1D PREFETCHER ACCESS:       1376  HIT:       1376  MISS:          0  HIT %:        100  MISS %:          0   MPKI: 0
LLC PREFETCH  REQUESTED:          0  ISSUED:          0  USEFUL:        642  USELESS:        223
LLC USEFUL LOAD PREFETCHES:        642 PREFETCH ISSUED TO LOWER LEVEL:        232  ACCURACY: 276.724
LLC TIMELY PREFETCHES:        642 LATE PREFETCHES: 0 DROPPED PREFETCHES: 0
LLC PREFETCHES SAME FILL-ORIGIN LEVEL: 0 DIFFERENT FILL-ORIGIN LEVEL: 0
LLC AVERAGE MISS LATENCY: 158.147 cycles
LLC RQ	ACCESS:     600787	FORWARD:          0	MERGED:          0	TO_CACHE:     600787
LLC WQ	ACCESS:     116355	FORWARD:          7	MERGED:          0	TO_CACHE:     116355
LLC PQ	ACCESS:     134317	FORWARD:          0	MERGED:          0	TO_CACHE:     134310

LLC Dense regions hint to LLC: 0

RAW hits: 3079077
Loads Generated: 55268199
Loads sent to L1D: 52189118
Stores Generated: 21284223
Stores sent to L1D: 21284228
Major fault: 0 Minor fault: 1240
Allocated PAGES: 1240
ucb ended
-----------------------------------------------------------------------------------------------------------------------------------------------------------------------------------------------------
Offsets elements: -10141702 -1 6 3662 -3665 1 -288223781549172787 849720221 -849720273 2 849791944 -849791946 -1465146441096 1465140594202 855638838 -1465996230850 23759025 -23761061 2900 1465996221700 -849783609 -49 288223781559314809 -10138311 -2200619482611 2200619482611 23 -353051 312956 -416255 306868 145788 -145789 145792 145786 -13036617 12890829 -2200619298445 2200619384674 9 -11 59553 3 -13036619 12694614 342002 -342004 342004 -342003 -46535 46535 -12 -341997 341997 -342001 282450 -282451 342000 -59545 59543 5 -6 -13036614 13036615 -3 4 12890828 145789 3670 -3661 -50 -1465146441095 1465146441099 849791941 -849791944 -1465146440980 -455 1465146441438 -1465146430468 1465140583589 5846928 849783350 -855630257 91 -1465140594333 1465996233040 -1465996232929 1465996161239 71690 -71345 66384 -849786983 1465146441097 849791943 -5846763 854640391 -848793626 -1465146563923 1465140717058 -14 -1465140594707 1465995185152 -1465995184688 21987 -22198 10726 11425 37 -21837 29529 -11781 -17911 1465996224542 -1465996224724 29874 -7730 1465146419230 848793585 -1465995235026 22199 1465995212827 -1465995234760 21953 1465995212849 -19 -1465995224123 1465995224141 -1465995225069 1465995225067 -18 -848793658 -1465146441597 3560 1465146438036 -1465146437267 -4167 3412 -3303 229 119 1465996161231 -8 71698 -4961 -66384 71345 -1465996232914 1465140594199 -1465116817142 -23777057 23777057 1465122663915 -1465146441241 621 1465140593846 -1465140593847 17388 -17748 1465146441029 -1465996224730 22151 -21963 21962 1465995212815 43 -1465995212821 1465146419143 -1465146412209 1465146412211 -5846793 -1465140594381 1465140594277 -1465140592012 864 1465146438044 -5846792 5846792 -5846791 5846793 486 5846308 -5846795 -99 -1465140594208 1465140594208 -1465140594277 1465996233115 -2036 23761061 1465972463539 -1465996221700 1465146438091 288223781559314760 353051 13036620 -145791 2200619444233 12977058 59559 -59557 -282447 342001 12694613 46533 -341999 282449 59552 -59553 -282449 59551 -341996 -2 345675 -345676 341998 -341998 282430 -9 202020 -626544 484083 150750 -25 15 -4 -150736 150726 10 -2200619512712 13 2200629503684 -2200629503697 2200629504003 -3072 1652 35 -9989902 -15 9989917 -2200629502605 2448 2200619359510 10140644 -10140644 150739 9989905 -9989916 -2200619512682 -114400 2200619627096 -13 -1731 9991645 -9989498 -2146 2146 -151148 151150 29 -151175 151169 -636004 484835 150733 -2200619510190 2200619508462 1731 9989911 -10486933 497018 -1730 1730 -2200619510639 2200619510641 9991296 -2200629618379 2200619627083 -2200619627081 2200619625349 1732 -1729 1756 9989851 -9989918 30 -1759 -2200619510973 2200619361972 10140423 -9991421 -2200619510652 2200619508921 -149001 149002 -207703 10197582 31 -10197613 10197613 -10197617 10197584 -10197580 -10197583 205972 -205972 205973 -205974 10197583 -11610828 11610831 -10197585 10197616 -33 -10197584 -10197582 10197585 56968 10140611 -10197581 -10140646 -4706212 4706211 9989915 -2200629616996 2200619627497 9989499 -2200629500565 2200619511068 11 -416 416 -2147 -1728 2144 9989498 -150731 10140645 -9989499 -151143 150728 9989918 -2200629616999 2200619476354 10140643 -35 -10140606 150749 -150749 -484085 484086 142458 -142456 -59567 59568 -59564 59564 295479 -295480 -3744142889 3739760132 14868633 -3754628765 3744484881 -2200619019610 2196874876434 3739760432 14868620 -3754629052 -3739760432 3744485171 59548 -13036616 13036619 145791 -288223781549172837 50 -1465146441094 1465146441098 849791942 -1465146441434 455 10515 1465996213867 -849783350 -5846857 5846858 -1465146441098 1465146441101 849791939 -849791941 -5846794 -1465140594307 1465146441102 849791938 -849791938 -5846824 488 -1465140598075 1465140597558 517 -517 -51 49 40 -89 78 -98 5846898 -1465146441118 -855638717 -1465140583527 -10886 1465140594416 -100 -1465140583725 11453 1465140572372 -1465140564713 1465146411453 -1465146423201 -849783429 -5846847 -1465140594218 111 1465996232929 -71690 345 4961 -4962 -849787013 -1465146441064 1465146441066 849791974 -849791975 -5846779 -1465140576423 -849783430 -1465140594429 1465140594404 -1465140583478 -10644 1465994138784 -853544662 855630493 -855630494 5846883 -78 -5846804 -1465140594129 1465140594129 -40 -1465140594246 40045 1465140554223 92 -55 -1465140582395 -15166 3140 1465140594421 -1465140608573 14297 -1465996233414 374 -1465996233040 10798 1465146430265 849791977 -849791982 -849791971 36 -1465146545829 104724 -293 1465996233333 -855638761 41 14 -17 -92 -1465140594172 10740 1465140583628 -134 -56 5846832 -5846675 5846675 -5846796 55 -43 797 -801 -1465140597560 1465140597560 752 -1465140595152 2265 865 -3055 1465140595068 855637972 -855637972 -274 -1465140594794 1465140595079 -1465140595361 -855638246 5846264 -5844635 5844635 -5846263 670 -668 -5845976 395 960 -1629 -5844971 5844969 5846263 -5845979 1355 -317 -1312 1314 5844949 -5846262 -312 -1317 1320 5844943 -288 -1341 -5844920 5844921 1067 288 -5844918 5844917 1349 5844915 1356 -1630 -5844896 5844895 -258 -1372 1375 5844888 -238 -1392 1395 5844868 5845987 -5844631 5844634 -5844865 -1400 5846262 1421 5844840 -204 -1426 -5844835 5844836 -184 -1446 1448 5844815 -179 5844813 -5844811 5844810 1357 -1631 -5844792 5844791 1476 5844784 -1497 1499 5844764 -5846261 -129 -1502 1505 5844758 5846258 -109 -1522 -5844738 5844739 5846261 -103 -1528 -5844734 5844733 5845990 -1465146441058 1465146441058 849791982 -849791984 -1465146441060 1465146441061 849791979 -849791981 -5845992 8 -1465140595051 1465140594251 -65 1127 -1465140583458 -11881 -855638800 828 -647 -203 165 -1465140594550 1465140594553 5846669 -1465146545708 1465140699732 -807 853544662 -1465994138784 1465140594122 -858 -1465140594260 1465140594262 855638778 -2094115 -1465994138786 1465140594123 855630492 -855630493 -90 -5845977 -815 -1465140594130 1465140594130 816 -1465140577213 -989740 -1465995234629 1465140595254 854639371 -848793702 -1465146441054 1465146441055 -5845987 -855638821 860 -1465140595108 10661 -923 23767475 1465116818196 -1465116818196 -1465140585664 -57516 23824984 -1465140643180 23824987 1465146488856 -5845997 -750 1025 28 -1465140595538 1465140595581 -7 719 -720 -1465140606391 1465140606391 5845651 -5845716 -1121 2131 -1006 1081 -1081 33 5845678 -1465146444138 1465140598151 -850 850 -1465140595000 -68 10596 1465996222444 -849792019 -5845952 -1465140595326 1465140594594 -1465140594328 45 1465140594166 -1465140583425 -10791 -147 -14152 10797 1465996222243 -849792005 -1465146441035 1465146441042 849791986 -849791997 -1465146441228 1465140594411 -1465140594483 11051 1465146430262 -1465146430269 1465146430269 303 -1465140595379 1465140594218 855638822 -855637698 66 -66 69 -69 -918 1159 -1041 -1465140594686 1465140595689 -1465140584549 1465146430211 -5846759 1106 -849792042 -5846774 5846649 -5846769 -1465140594224 1465146440998 849792042 -849792044 -5846651 -1465140594344 -855638822 -1465140594193 1465140595314 -1465140582337 1465140583458 -1465140595314 11856 1465140583460 -1465140595341 849792045 -11856 1465140594193 1121 -1465140583460 1465140582344 -1465140594323 1465146441096 -1465146427159 -13838 1465996222242 1465146440996 -5846663 -1465140594309 1465996233015 -855637701 -1060 -1465140582398 1465140594253 -1465140582397 -15161 1465146444281 -5846783 1122 1011 -1465140596360 -855636677 -2077 -54 -20 5846784 -1465146440996 -855636680 5844637 -5844649 5844649 -5845658 -1052 750 -1465140595068 1465140594279 855638761 -1465140594125 1465994138790 -853544666 855630491 -855630491 5846881 -5846718 -1465140594132 1465140594131 5846733 849792044 -1465140700068 1465146545729 -5845657 -1126 -1064 2075 -1465140596348 -855638764 -1465140594339 1465140594386 -1465140593810 17351 1465995212814 -1465995234777 1465995234820 -1465995212858 1465146419039 -5844623 -1465140567872 -28935 1465140594713 -1465140592154 1465140594236 -1465140596358 1465146440995 -855636692 -2130 5846778 -1465146440997 1465140595340 855638706 -1465996233140 234 10670 1465146430340 -1465146395658 -45670 1465140596535 -1465140550866 1465140550868 2076 -1465140596830 1465994136245 -853539405 -2082 2072 5844646 -1465146430190 34682 1465994090278 -1465994135651 45373 1465146395658 -45485 1465146440997 849792043 -849792048 -5844640 1124 98 -24 -1465140595886 588 -849783502 152 -5846937 174 5846611 -5846336 -435 -1465140594365 -153 -46 3659 7311 -10515 1465146441032 -5846785 -1465140594674 1465140594529 -1465140717391 1465140718552 -1144 1104 -1465140595235 1465140594232 -31 -1465140594149 1465140594059 -1465140594215 1465996233047 -855638825 -1465140594647 -63 -1465140594164 1465140595286 -1465140594841 1465140593824 -1465140593824 17365 1465146419035 -1465146412338 1465146412339 -5846771 -5 5846783 -5845654 -1465140595340 -1465996233332 1465140596654 5844631 -5846764 1465146440979 849792061 1465146440972 849792068 -849792067 -5846636 -118 5845640 -1465146440957 -315 1465140596655 -1465146440982 1465146440975 849792065 -849792065 7 -1465146440976 1465146440990 849792050 -849792063 19 -5846778 1022 5844648 -1465146441457 1465140596812 -2134 1009 -1465140596353 1465140596349 5844645 849792046 -1465996233344 304 1465140594268 855638772 -1465996230886 -2154 1465146440970 849792070 -855638704 2026 -2150 2149 -1465140594283 1465140594395 5846651 -1465146440994 -1465996232921 -849787112 849792073 -849792074 -1465146440966 -855636678 2147 5844601 -5846748 5846748 -5846745 -1465140596820 606 1465996205201 -43987 43906 -43937 -849720161 849720292 -855567199 855567137 -5846976 5845664 -1465146440912 1465146440913 -5844600 -1465140596646 1465140594499 -1465140596604 -3076 2965 22262 1465140574446 -1465140572276 1465140574422 -1465140596363 -1465996221414 1465140584737 -1465140584737 1465146429337 -1465146441282 11948 23748495 -23855985 23855982 -281 281 1465118981733 -1465118982014 1465118982014 -1465118972647 1465118972647 -9367 1465122681123 -1465122681123 9367 -23765884 1465142738648 -1465142738644 1465142738644 -1465142741819 1465142759433 -2163222 2163222 -2163223 5844597 -1465146440963 1465146440963 849792078 -849792077 -3681368 -2165377 -1465122681125 -23748213 1465146429338 -5844603 5846750 -5845665 -1465146440965 1465146440965 849792076 1465146440971 849792072 -855638696 5846631 -5844612 5844609 -1465146441009 11672 1465996221368 -1465996229717 1465140593040 -1465140593035 1465140593035 5844608 849792069 -849792070 -5844609 -2027 -1465140594295 -187 97 10837 -10647 1465996224615 -849783610 -171 -1465146427421 1465146427421 -1465146440935 -39 13553 1465996219487 -2095847 -1465994123640 30447 -30447 -10231 1465140591327 -1465140591323 -3175 1465142759451 -2163240 2163247 -2163247 3681358 -1465146396969 1465146396968 -1465146440970 -849792071 -849792069 -5846320 -1465140581095 1465140581609 -514 5846323 -5846761 -1465140580659 -13421 13420 1465140581611 -112 2164558 -2164550 -1465140596051 657 100 1465139576131 -1465139553964 -4068 21800 1465146419229 -849783525 3601493 -3601492 848793759 -854640491 -27 5846712 -1465146440834 -5846883 -5845777 1169 -2151 -172 1182 -1465140596210 1465140595181 1028 -1185 -1465140595048 1465142759489 -2164445 32 -144 -1465140596040 1465140596159 -1465140595050 1465140595050 5845802 -1465146440851 1465146440852 1465140595166 855637874 1465146440968 849792071 -855638827 5846759 -1465146440971 1465146440973 17 -5844621 -2138 -1188 2164445 -2163238 2163236 -2163236 2163238 3681382 -5844639 5844642 -5845830 -1465140596037 1465140596038 112 -1465140595164 -1465996218769 -14271 25214 1465140569075 5846700 849792051 -849792052 -5846699 -64 5846764 -5845780 1142 853143467 -1465993738806 1465140596351 855636689 -855636689 -1187 -945 2165378 -2164223 -1465140595373 -374 1465142759980 853473434 -2135 5846780 -5844645 -1465140596809 1465140594674 1129 5845654 -5846679 121 -133 5846691 -111 1307 -1465140571145 1465140568999 -1465140594316 13936 1465146427152 -5844642 -849792049 -1465146440990 -849792045 -5845622 -29 12 74 24 -36 -1465140595311 409 1465140593821 -1465140593821 17362 6657 1465146412383 -5845554 5846334 -1465146453121 1465140606790 776 5845556 -5845587 -60 -1120 1184 -1465140595409 1465140595411 855637629 -855637636 -1156 1164 -5844620 5844619 -5845585 -1465140583714 1465140582642 1070 945 -940 940 -937 -251 2164442 -2164442 -1465140595163 -853473435 -2163254 -1465140596351 1465146440987 -5845787 855637840 -855636686 5844636 -5845576 5845576 -5845579 -1075 -1465140594336 -225 1465996233265 -855637629 -1067 942 -1465146440991 1465140594344 5846647 849792049 -849792050 -5845578 -1200 125 1196 5845578 -5845581 -1191 1195 -1195 1154 -28 -1465140595905 615 1465140594099 1137 54 -1465140610014 26262 1465140583746 -1228 1153 -1465140600926 1465140600912 71 -1196 1125 106 -1231 1232 -107 64 -1465140595789 1465140596727 -1465140596346 -855636693 -1465140595566 1465140594625 2128 -1465140608551 1465140608552 -968 27 1465140596346 855636694 -1465996232894 1465140595294 906 -1189 1183 2163260 -1465142759635 1465140595193 -1465140584532 1465140584431 -1465140585354 1465140585732 -1465140585725 1465140585725 -861 585 5845808 -5845909 101 -3681347 -1465142807428 1465146488775 -1465146488779 1465140644156 2164440 -1465142759604 1465140595198 855637842 -855638823 2134 -1181 -590 587 -587 -485 5846391 -1465146440972 1465146440985 849792055 -849792066 -1465146441356 1465140594803 1925 -1465140595565 1465140593437 170 1958 -946 -1465140595324 1465140595381 -1465140594668 1465140593798 -588 616 -1465140608202 1465140607588 584 -583 2165023 -2165024 -1465140594890 -12693 1465140607582 -1465140607582 -1465140607584 12693 4143 1465140590747 -1465140607588 1465140609355 -1768 5845822 -5844638 2163259 -2165388 1139 5845630 -1465146440987 1465146440988 849792054 -849792053 -5845538 893 -1465140608533 1465140607639 895 -897 -1465140600998 1465140599770 1231 -106 -1465140601009 1465140601013 -1465140608542 1465140607648 -1465140608548 -1151 255 901 -900 894 -895 -1465140607639 1465140608532 -1465140608532 1465140608534 5845537 5845538 1193 5845577 -5845540 -1465140601000 1465140601002 -1465140601016 1465140601014 -1465140601015 1465140601011 -1232 1236 -1465140601019 1465140600944 -1465140583677 1465146429289 -5846773 203 5846570 -5846601 -170 -1153 68 718 -1465140607104 10978 1465140596126 -1908 -855637697 -1465140606303 1465140606367 -1465140607086 10656 -1465140592114 1465996230886 -5844858 855636911 -1465996233207 1465140595633 663 -1465140607314 1465140607312 -1465140607313 11217 -855636951 -746 -1465140606549 1465140606613 -1465140595711 -855636948 -627 907 -1465140608575 11823 1465140596755 -1465140596373 1006 1465140595593 855636666 2155 -967 969 -996 146 1465140596227 -855637583 1211 -1465140596403 -1465142748974 394 -1465140585748 1465140584871 -1465140584864 1465140585449 2164461 1465146488766 -5845901 -1465140642866 5844614 -5846691 -1771 590 -486 5846383 -1465146440933 1465146440944 849792063 -855638619 -1465140594803 1465140596756 -2155 361 -1465140593798 1465140593800 -193 1964 -827 777 -162 1465140608174 -1465140595478 1465140595474 -1465140608167 -1465140590748 1465142755771 -1465142772607 1465140609378 -1465140592542 5846396 -1465146453980 1465140608171 1212 -2157 5846761 -1465146440978 1465142759606 -2164249 122 5845515 -5844888 855636948 -855636949 -684 963 -282 -1465140608282 1465140608575 -23 -1155 1175 278 -1465140608571 -1465140608550 1465140607395 -1175 1177 -1465140608561 1465140608280 279 5844610 -5844608 1465140607655 626 -632 629 -629 -1465140607839 1465140607837 -1465140608456 1465140607824 -1465140608466 1465140607833 -1465140607837 -1465140607824 1465140608454 -1465140607822 -631 5844889 -1465146453342 1465140607828 620 -618 618 -1465140608471 1465140608450 1465140608458 1465140608457 -1465140608458 1465140608460 -1465140608446 1465140608448 -1465140608448 1465146453341 -5844887 1465140608453 1465140608451 -1465140607296 10868 10970 1465140595976 855628406 -855629033 5845682 -5844778 1465140608579 -1795 887 -1465140608476 633 1465140607844 -1465140608467 1465140608470 905 -1465140608579 1465140606784 886 1465140609381 -1465140608574 1465140608578 -1465140607587 1465140608474 -1465140607843 -1465140607842 1465140607843 623 -1465140608462 5844890 -1465146453356 1465146453356 -1465140608477 1465140608471 -1465140607844 1465140608462 1465146453357 -5844886 -1465140608567 1465140608567 1465140606422 1874 -753 126 1465140606776 -1465140607585 1465146453986 -5846558 -1465140594388 849792053 -849792059 -5846762 749 -679 5845575 -5845521 -1465140607298 1465140607298 -1465140607309 -1465140607347 1465140607345 -37 -1465140607049 1465140607052 -1465140607312 1465140607349 -1465140607297 1465140607336 1465140607335 -625 662 -1465140607337 11224 771 -707 -1465140606613 10902 -855636923 -1465140596499 157 1465140595691 -1465140595466 -1465140593437 1465140595596 855636662 -855636660 -2161 1161 1465140607611 -1465140595406 1465140596232 855636661 -855637574 913 -1216 -1465140595192 -2164140 -1465140584834 1465142749910 -2164159 -302 5845800 -1465146488766 1465140642866 5845904 -5844614 1465140595163 2165386 -2163253 -614 586 -1465140595167 1465146440977 -5845900 855637974 1465140596761 -2160 -1465140594185 1465140594355 -1465140593607 1465140595571 -778 -1465140594891 1465140595478 1465140608170 1465142759914 -1465142772606 16836 1465140592547 5844598 -5846397 1800 -2162 -1465146453982 194 2164263 -2164199 -1465140595407 651 5844864 -5844605 -262 -1465140608307 1465140608317 235 1465140608551 -235 5844630 -5845785 1180 -911 -1465140608306 639 -1465140608482 -10 1465140608480 -1465140608491 1465140608476 -1465140608480 1465140608465 -1465140608468 1465140608479 -1465140608478 645 -643 -1465140608488 1465140608475 5844871 -1465146453354 1465140608485 -1465140608485 12035 -12034 1465140608483 -1465140608473 -1465140595998 -22993 -1465140607324 1465996235705 -855629032 -5844773 -276 -1465140608313 -1465140606957 1465140609120 -1465140608492 1465140608495 -651 909 -1465140608584 -1465140607590 1465140608477 -642 -1465140607670 1465140606783 1465140608481 -648 -1465140608474 1465140609125 -1465140608494 1465140608487 5845513 5846762 -5845513 652 258 5844606 -5844601 -1040 -1465140595339 -5844884 5844874 -5845522 -1465140607671 1465140606423 1899 -1696 158 855638461 -1465996245418 1465140607845 908 -1036 -955 -1465140607399 -1465140608311 834 -1465140606622 1465140607323 -1465140609120 1465140609135 -1465140607348 -1465140607076 -260 -649 -1465140606674 26 -1465140596155 1465140596143 -1465140607366 1465140607367 -1925 -1465996244246 1465140606549 -1465140595647 -1465140593253 -855636894 227 -1465140608585 1465140596765 -1465140596383 1465140596384 -1465140596609 1465140594443 2165 -1465140595603 -781 -175 1465140595435 221 855636688 -1465996222408 1465140584531 965 -1465140586420 1465140586640 2163258 -2164543 -1465140585348 1465140584864 -303 2165349 -47803 1465140642966 589 -1465140595195 -5845799 855637873 1465140596766 -2165 848 -1465140595033 1465140594890 1805 -1803 -1465140595506 1465146441288 -1465146453983 1806 -1465140592553 1465140590386 -3681374 3681375 -5845815 855637697 -849792060 -5844834 -1465140592314 1465140592323 -1576 2165026 -2163461 -738 739 -1465140609387 818 1189 1185 -1465140608347 1465140608581 -205 -1465140608334 1465140607384 1187 -5844598 -227 -21 -1465140608525 1465140608498 -1465140608509 1465140608520 5844848 1465140608509 -1465140608508 1465140608505 -1465140608497 1465140608517 1465140608507 -1465140608517 1465140608504 -1465140608514 1465140608511 1465140608502 -1465140608502 1465140608508 1465146453342 -5844840 -1465140607350 11323 1465140585515 855628352 -855628343 5844993 -5844768 -229 -1465140608360 1553 -1465140609148 1465140608533 1465140608524 -1465140606783 1465140608336 -1465140609166 630 1465140608757 -252 -1465140608351 -361 -1465140606596 5844825 -1465146453991 1465146453990 -5845640 1041 -1963 -1465140594421 1465146440981 -1465146453177 -191 5846600 849792052 1928 -1465140609152 1465140609161 -26 -783 784 16 -1465140607088 1465140607103 -730 1465140607353 -1465140607352 1465140607334 18 -16 1913 -1465140596485 -1465140593189 1465140594015 -764 -1465140606630 1465140607378 -1465140596562 382 781 1465140595606 -1465140596610 -855636652 -2171 2172 -1465140608595 1465140607584 1465140596242 855636651 -855636885 196 -1465140596377 1465140595192 1226 -1225 991 -1465140585523 1465142748974 2084 5844612 -5845803 855638459 204 1465140596771 2163215 -2165386 952 5845782 -5846589 -190 -1465140594546 1465140595033 582 1465140607583 -1092 1465140594891 1465140609393 -1465140592557 5846399 -5845621 -1465140608346 1227 -210 5844800 -5844808 -1465140596171 1465140595407 2164199 -2163221 -1465996245230 1190 -213 217 -217 -1465140608372 1465140608590 5844591 -5844629 1465140607396 985 205 -1465140608350 1465140608361 -1465140608537 1465140608531 -1465140608534 -1465140608522 -5844820 21 1465140608529 -1465140608546 1465140608538 -1465140608539 -1465140608526 1465140608528 -1465140608528 -5844807 5844809 -1465146441319 -12023 1465140608526 -1465140596050 1465140596053 -1465140585538 1465140585540 1155 -855628318 5844967 -5844763 -231 -1465140608377 -633 1465140609191 -1465140608385 -174 1465140608559 -1465140609174 1465140609172 -1465140608541 1465140608545 -1465140608549 1465140608558 -1465140608386 -1465140609182 -1465140608582 1465140608582 -2167 1953 -1465146453184 1465146453192 -5845648 841 1954 -52 -2001 855638652 826 -1465140607131 -1237 -1465140609177 1465140609134 44 -1465140607418 -855636845 -852 -855636842 -1465140596588 1465140595611 -1465140596615 -855636647 -1465140608599 2177 -989 1465140596393 855636646 1465140596035 167 46 -1465140596381 1290 -1465140644156 57512 9715 -2164462 -1465140642020 1465142807406 -615 -586 -1465140594581 1465140595066 5845911 849792074 1465140596776 -2175 -1465140594892 1465142772606 1814 -1465140609397 12692 1465146437145 5846398 -1465146437146 1465140592563 -2177 1043 5844774 -5844782 -839 -853473434 -2163216 -987 -1465140607597 -152 -1002 5844588 -1465146453181 1465140608395 -1011 -1465140608563 1465140608550 -1465140608558 1465140608557 1465140608560 1465140608548 5844793 -5844781 5844783 -5844796 1465140608568 -1465140608570 1465140608571 -5844789 -1465140596075 -11323 1465140596536 -1465140585566 1465140585575 855628292 -855628108 -188 5844942 -1465146453353 1605 -1465140609200 1465140608584 1465140608576 5844773 184 -1465140608399 1465140608583 -1465140609217 1465140609398 -1465140608402 -1988 1979 -1465140609208 1465140609401 -1051 5845641 -5844774 -1465146453176 1465140606625 1465140596390 5844587 -5846600 -1465996245237 1980 -1465140609132 1465140608349 852 -1465140607156 1465140607155 -782 715 1465140607416 -70 -1465140607414 1465140596223 -1465140607446 1465140605442 -855636817 -880 -1465140594650 -10824 10981 1465140595632 -855636814 -2007 1465140595429 -831 -1465140595233 1465140596251 -1465140608605 1465140596207 144 -855636641 -1465140596428 141 -1465140585716 -1465140585455 484 -2075 -1465140594276 -853473437 3681355 -5846742 -5845796 -616 -855638459 1092 1465140593640 1465140596781 -2180 1465140607392 1465140608069 2164537 -1465140607583 1465140609407 -1820 2164443 -2163206 -2182 -1465140595343 -5845571 855637633 -855636830 5844770 -5844754 -173 -1465140608416 1465140608596 -44 1200 -1465140608600 1031 169 5844585 -1465146453169 1465140608399 -1465140608591 1465140608600 -1465140608587 1465140608587 5844755 -5844766 -1465140608589 1465140608591 -1465140608593 1465140608588 1465140596107 -1465140585592 1465140585594 -1465140607432 1465140607433 855628272 -855628288 5844938 -5844753 -177 -1465140608422 -1465140609221 1465140609406 1631 -1465140608588 1465140608594 -1465140609228 1465140609230 -1465140608603 185 -189 -1465140608415 1633 1465140609237 1465140606596 1992 -886 1056 -1465140608773 1465140608599 -1978 -1465996246046 1465140607224 2008 5844762 -5844777 -867 786 94 34 -846 812 -1465140607185 -249 1465140607455 -1465140596250 -1465996244263 11206 -1465140594522 1465140594572 1465140593253 844 -1465140596632 1465140596592 -1992 1465140595621 -1465140596625 1465140596628 -1026 855637661 -1465996245245 12351 1465140595260 1465140596403 855636636 1241 -1240 1046 5844753 -1465146440992 1465140594305 2165330 -1288 -1465140595063 1465146488770 -1465146430335 -584 619 -1465996223331 1465142749895 -1465142749910 -57518 1465140642020 -101 -1465146440977 1465140596786 -2185 1465140609412 5844573 -5846398 1826 -2187 -5844769 5844730 -5845817 -855636640 2163202 -1056 1055 150 -1465140608439 1465146453169 -1465140608629 1465140608614 -1465140608611 -1465140608610 1465140608610 -1465140608614 1465140608611 -1465140608601 1465140608613 -1465140608612 -5844741 -1465140608624 1465140608615 -1465140608607 1465140608607 -1465140596132 1465140596589 -1465140585619 1465140585579 855628287 -855628098 5844744 -5844937 1658 -1465140609253 1465140608589 -1465140608625 1465140608628 -41 190 -1465140608609 1465140609411 -1465140609219 -1465140608619 1465140608619 5844768 1465140608620 
Potential of Offsets elements: 28.6612 786.599 373.661 28.6612 28.6612 1071.1 28.6612 28.6612 28.6612 885.661 28.6612 28.6612 28.6612 28.6612 28.6612 28.6612 28.6612 28.6612 28.6612 28.6612 28.6612 62.6612 28.6612 28.6612 28.6612 28.6612 172.661 28.6612 28.6612 28.6612 28.6612 28.6612 28.6612 28.6612 28.6612 28.6612 28.6612 28.6612 28.6612 94.6612 55.6612 28.6612 502.661 28.6612 28.6612 28.6612 28.6612 28.6612 28.6612 28.6612 28.6612 64.6612 28.6612 28.6612 28.6612 28.6612 28.6612 28.6612 28.6612 28.6612 345.661 282.661 28.6612 28.6612 751.661 454.661 28.6612 28.6612 28.6612 28.6612 157.661 28.6612 28.6612 28.6612 28.6612 35.6612 28.6612 28.6612 28.6612 28.6612 28.6612 28.6612 28.6612 41.6612 28.6612 253.661 28.6612 28.6612 28.6612 28.6612 28.6612 28.6612 28.6612 28.6612 54.6612 28.6612 28.6612 28.6612 28.6612 347.661 28.6612 28.6612 28.6612 29.6612 28.6612 28.6612 28.6612 156.661 30.6612 28.6612 28.6612 37.6612 28.6612 28.6612 28.6612 28.6612 28.6612 28.6612 28.6612 28.6612 28.6612 28.6612 28.6612 28.6612 422.661 28.6612 28.6612 28.6612 28.6612 439.661 28.6612 28.6612 28.6612 28.6612 28.6612 28.6612 28.6612 28.6612 126.661 28.6612 28.6612 278.661 28.6612 28.6612 28.6612 28.6612 28.6612 28.6612 28.6612 28.6612 28.6612 28.6612 28.6612 28.6612 28.6612 28.6612 28.6612 28.6612 28.6612 28.6612 29.6612 28.6612 28.6612 28.6612 85.6612 28.6612 28.6612 28.6612 28.6612 28.6612 28.6612 28.6612 28.6612 28.6612 28.6612 28.6612 28.6612 28.6612 28.6612 28.6612 28.6612 28.6612 298.661 28.6612 28.6612 28.6612 32.6612 28.6612 28.6612 28.6612 28.6612 28.6612 28.6612 28.6612 28.6612 28.6612 28.6612 28.6612 28.6612 28.6612 28.6612 28.6612 28.6612 28.6612 28.6612 28.6612 28.6612 28.6612 28.6612 28.6612 28.6612 519.661 28.6612 28.6612 28.6612 28.6612 28.6612 194.661 28.6612 28.6612 28.6612 28.6612 93.6612 211.661 873.661 28.6612 28.6612 154.661 28.6612 108.661 28.6612 28.6612 28.6612 28.6612 28.6612 167.661 28.6612 165.661 28.6612 28.6612 28.6612 28.6612 28.6612 28.6612 69.6612 28.6612 28.6612 28.6612 28.6612 28.6612 294.661 28.6612 28.6612 28.6612 38.6612 29.6612 28.6612 28.6612 118.661 28.6612 28.6612 28.6612 28.6612 28.6612 28.6612 28.6612 28.6612 28.6612 28.6612 28.6612 28.6612 28.6612 28.6612 28.6612 28.6612 28.6612 28.6612 28.6612 28.6612 28.6612 28.6612 28.6612 28.6612 28.6612 135.661 28.6612 28.6612 28.6612 28.6612 28.6612 28.6612 28.6612 28.6612 28.6612 28.6612 28.6612 484.661 28.6612 28.6612 28.6612 28.6612 28.6612 28.6612 28.6612 28.6612 28.6612 28.6612 28.6612 28.6612 28.6612 28.6612 28.6612 332.661 28.6612 28.6612 28.6612 28.6612 28.6612 28.6612 28.6612 28.6612 28.6612 28.6612 28.6612 28.6612 28.6612 28.6612 28.6612 341.661 28.6612 186.661 28.6612 28.6612 28.6612 28.6612 28.6612 28.6612 28.6612 28.6612 28.6612 28.6612 28.6612 28.6612 28.6612 198.661 28.6612 28.6612 28.6612 28.6612 28.6612 28.6612 28.6612 28.6612 99.6612 53.6612 28.6612 28.6612 28.6612 28.6612 28.6612 28.6612 28.6612 28.6612 28.6612 28.6612 28.6612 28.6612 28.6612 28.6612 28.6612 28.6612 28.6612 28.6612 28.6612 28.6612 252.661 28.6612 28.6612 28.6612 28.6612 28.6612 28.6612 28.6612 28.6612 28.6612 28.6612 28.6612 28.6612 28.6612 28.6612 28.6612 28.6612 28.6612 28.6612 28.6612 28.6612 28.6612 28.6612 28.6612 28.6612 28.6612 114.661 29.6612 150.661 121.661 43.6612 36.6612 28.6612 28.6612 28.6612 28.6612 28.6612 28.6612 117.661 28.6612 28.6612 28.6612 28.6612 28.6612 28.6612 28.6612 28.6612 28.6612 42.6612 28.6612 28.6612 28.6612 28.6612 28.6612 28.6612 28.6612 28.6612 28.6612 28.6612 28.6612 28.6612 28.6612 28.6612 28.6612 28.6612 28.6612 28.6612 28.6612 28.6612 28.6612 28.6612 49.6612 28.6612 28.6612 28.6612 243.661 28.6612 28.6612 28.6612 184.661 151.661 28.6612 28.6612 28.6612 28.6612 28.6612 28.6612 28.6612 28.6612 210.661 28.6612 28.6612 28.6612 28.6612 28.6612 163.661 28.6612 28.6612 28.6612 28.6612 28.6612 73.6612 218.661 179.661 143.661 28.6612 28.6612 28.6612 28.6612 81.6612 28.6612 28.6612 28.6612 28.6612 47.6612 100.661 28.6612 79.6612 28.6612 28.6612 46.6612 28.6612 28.6612 28.6612 28.6612 28.6612 28.6612 51.6612 60.6612 28.6612 28.6612 28.6612 28.6612 32.6612 28.6612 76.6612 44.6612 28.6612 36.6612 28.6612 28.6612 28.6612 76.6612 300.661 178.661 28.6612 28.6612 29.6612 28.6612 28.6612 28.6612 28.6612 29.6612 28.6612 28.6612 28.6612 29.6612 28.6612 28.6612 28.6612 67.6612 28.6612 28.6612 28.6612 60.6612 28.6612 28.6612 28.6612 28.6612 28.6612 28.6612 168.661 28.6612 28.6612 28.6612 31.6612 28.6612 28.6612 28.6612 28.6612 28.6612 28.6612 28.6612 28.6612 28.6612 28.6612 28.6612 28.6612 28.6612 28.6612 46.6612 37.6612 32.6612 28.6612 28.6612 58.6612 197.661 28.6612 28.6612 28.6612 28.6612 28.6612 28.6612 28.6612 28.6612 28.6612 28.6612 28.6612 92.6612 50.6612 28.6612 28.6612 28.6612 46.6612 28.6612 28.6612 28.6612 28.6612 28.6612 52.6612 28.6612 28.6612 28.6612 29.6612 28.6612 32.6612 28.6612 28.6612 28.6612 28.6612 28.6612 28.6612 28.6612 470.661 28.6612 28.6612 42.6612 28.6612 28.6612 55.6612 28.6612 28.6612 28.6612 28.6612 80.6612 28.6612 28.6612 28.6612 28.6612 28.6612 79.6612 28.6612 28.6612 28.6612 28.6612 28.6612 28.6612 28.6612 28.6612 28.6612 28.6612 28.6612 28.6612 62.6612 28.6612 28.6612 28.6612 28.6612 28.6612 28.6612 28.6612 28.6612 28.6612 28.6612 28.6612 28.6612 28.6612 28.6612 28.6612 28.6612 28.6612 28.6612 28.6612 28.6612 28.6612 28.6612 28.6612 28.6612 28.6612 28.6612 28.6612 28.6612 28.6612 28.6612 28.6612 101.661 28.6612 28.6612 282.661 28.6612 28.6612 28.6612 28.6612 28.6612 28.6612 28.6612 28.6612 28.6612 28.6612 28.6612 327.661 28.6612 28.6612 28.6612 28.6612 28.6612 28.6612 326.661 28.6612 28.6612 28.6612 28.6612 28.6612 28.6612 28.6612 236.661 28.6612 28.6612 28.6612 28.6612 30.6612 28.6612 28.6612 28.6612 28.6612 28.6612 28.6612 28.6612 28.6612 28.6612 28.6612 28.6612 28.6612 28.6612 28.6612 28.6612 28.6612 28.6612 28.6612 28.6612 146.661 127.661 116.661 116.661 28.6612 28.6612 29.6612 28.6612 28.6612 28.6612 28.6612 28.6612 28.6612 28.6612 28.6612 28.6612 28.6612 28.6612 28.6612 28.6612 28.6612 28.6612 28.6612 28.6612 28.6612 28.6612 28.6612 28.6612 28.6612 28.6612 28.6612 28.6612 28.6612 28.6612 28.6612 28.6612 28.6612 28.6612 28.6612 28.6612 28.6612 28.6612 28.6612 28.6612 28.6612 28.6612 28.6612 28.6612 28.6612 28.6612 28.6612 28.6612 28.6612 28.6612 28.6612 28.6612 28.6612 28.6612 28.6612 28.6612 34.6612 99.6612 28.6612 28.6612 28.6612 28.6612 28.6612 28.6612 28.6612 28.6612 28.6612 28.6612 28.6612 28.6612 28.6612 28.6612 28.6612 28.6612 28.6612 28.6612 28.6612 28.6612 28.6612 28.6612 28.6612 28.6612 28.6612 28.6612 28.6612 28.6612 28.6612 28.6612 28.6612 28.6612 28.6612 28.6612 28.6612 28.6612 28.6612 28.6612 28.6612 28.6612 28.6612 28.6612 28.6612 28.6612 28.6612 28.6612 28.6612 28.6612 28.6612 28.6612 28.6612 28.6612 28.6612 28.6612 28.6612 38.6612 28.6612 28.6612 28.6612 28.6612 28.6612 28.6612 28.6612 28.6612 28.6612 28.6612 28.6612 28.6612 28.6612 28.6612 28.6612 28.6612 28.6612 28.6612 28.6612 28.6612 28.6612 28.6612 28.6612 28.6612 28.6612 28.6612 82.6612 157.661 28.6612 28.6612 28.6612 85.6612 28.6612 123.661 28.6612 28.6612 28.6612 28.6612 71.6612 185.661 28.6612 28.6612 28.6612 28.6612 28.6612 28.6612 28.6612 28.6612 28.6612 28.6612 28.6612 28.6612 28.6612 189.661 28.6612 28.6612 28.6612 28.6612 28.6612 28.6612 157.661 28.6612 28.6612 28.6612 28.6612 28.6612 28.6612 28.6612 28.6612 28.6612 28.6612 454.661 28.6612 28.6612 28.6612 28.6612 28.6612 28.6612 28.6612 28.6612 28.6612 28.6612 28.6612 28.6612 28.6612 74.6612 28.6612 28.6612 28.6612 28.6612 28.6612 28.6612 28.6612 28.6612 363.661 28.6612 28.6612 28.6612 28.6612 139.661 28.6612 28.6612 28.6612 28.6612 28.6612 28.6612 28.6612 28.6612 28.6612 28.6612 28.6612 28.6612 28.6612 28.6612 28.6612 28.6612 28.6612 28.6612 28.6612 28.6612 28.6612 28.6612 28.6612 28.6612 28.6612 28.6612 28.6612 28.6612 28.6612 28.6612 28.6612 28.6612 28.6612 28.6612 28.6612 28.6612 28.6612 28.6612 28.6612 28.6612 28.6612 28.6612 28.6612 28.6612 28.6612 28.6612 28.6612 28.6612 28.6612 28.6612 28.6612 28.6612 28.6612 28.6612 28.6612 28.6612 28.6612 68.6612 28.6612 28.6612 28.6612 28.6612 28.6612 28.6612 28.6612 28.6612 28.6612 28.6612 28.6612 28.6612 28.6612 28.6612 28.6612 28.6612 28.6612 28.6612 28.6612 28.6612 28.6612 28.6612 28.6612 28.6612 28.6612 28.6612 28.6612 28.6612 28.6612 28.6612 28.6612 28.6612 28.6612 28.6612 28.6612 28.6612 28.6612 28.6612 28.6612 28.6612 28.6612 28.6612 28.6612 28.6612 28.6612 28.6612 28.6612 28.6612 28.6612 28.6612 28.6612 28.6612 28.6612 28.6612 28.6612 28.6612 28.6612 28.6612 28.6612 28.6612 28.6612 28.6612 28.6612 28.6612 28.6612 28.6612 28.6612 28.6612 28.6612 42.6612 59.6612 28.6612 28.6612 28.6612 28.6612 70.6612 28.6612 28.6612 28.6612 148.661 28.6612 28.6612 28.6612 28.6612 28.6612 28.6612 28.6612 28.6612 28.6612 28.6612 28.6612 28.6612 28.6612 28.6612 28.6612 28.6612 28.6612 28.6612 28.6612 28.6612 28.6612 28.6612 28.6612 28.6612 28.6612 28.6612 28.6612 28.6612 28.6612 28.6612 80.6612 28.6612 28.6612 28.6612 28.6612 64.6612 28.6612 28.6612 28.6612 28.6612 28.6612 28.6612 28.6612 28.6612 28.6612 28.6612 188.661 28.6612 28.6612 28.6612 28.6612 28.6612 28.6612 93.6612 28.6612 28.6612 28.6612 28.6612 28.6612 28.6612 28.6612 28.6612 198.661 78.6612 28.6612 28.6612 28.6612 28.6612 28.6612 28.6612 28.6612 28.6612 28.6612 28.6612 28.6612 28.6612 28.6612 28.6612 28.6612 193.661 28.6612 28.6612 28.6612 28.6612 28.6612 28.6612 28.6612 28.6612 28.6612 28.6612 28.6612 28.6612 28.6612 28.6612 79.6612 28.6612 28.6612 28.6612 28.6612 28.6612 28.6612 28.6612 28.6612 28.6612 136.661 28.6612 28.6612 28.6612 28.6612 28.6612 28.6612 28.6612 28.6612 28.6612 28.6612 28.6612 28.6612 28.6612 28.6612 28.6612 28.6612 28.6612 28.6612 28.6612 28.6612 28.6612 28.6612 28.6612 28.6612 58.6612 74.6612 28.6612 77.6612 28.6612 28.6612 28.6612 28.6612 28.6612 28.6612 28.6612 28.6612 28.6612 28.6612 28.6612 164.661 240.661 130.661 65.6612 159.661 28.6612 28.6612 28.6612 28.6612 28.6612 28.6612 28.6612 28.6612 28.6612 28.6612 28.6612 28.6612 28.6612 28.6612 136.661 28.6612 28.6612 28.6612 28.6612 28.6612 28.6612 28.6612 28.6612 28.6612 28.6612 28.6612 28.6612 28.6612 28.6612 28.6612 28.6612 28.6612 28.6612 28.6612 28.6612 28.6612 28.6612 28.6612 28.6612 28.6612 28.6612 28.6612 28.6612 28.6612 28.6612 28.6612 28.6612 28.6612 28.6612 28.6612 28.6612 28.6612 28.6612 28.6612 28.6612 28.6612 28.6612 28.6612 28.6612 28.6612 28.6612 28.6612 72.6612 28.6612 28.6612 28.6612 28.6612 28.6612 28.6612 100.661 58.6612 28.6612 28.6612 28.6612 28.6612 174.661 28.6612 28.6612 28.6612 28.6612 28.6612 28.6612 28.6612 93.6612 28.6612 28.6612 89.6612 28.6612 28.6612 118.661 158.661 28.6612 28.6612 28.6612 28.6612 28.6612 28.6612 28.6612 28.6612 28.6612 28.6612 48.6612 28.6612 28.6612 28.6612 28.6612 28.6612 28.6612 28.6612 28.6612 28.6612 28.6612 28.6612 28.6612 28.6612 28.6612 28.6612 28.6612 28.6612 28.6612 28.6612 28.6612 28.6612 28.6612 28.6612 28.6612 28.6612 28.6612 28.6612 28.6612 28.6612 28.6612 28.6612 28.6612 28.6612 28.6612 28.6612 28.6612 28.6612 28.6612 28.6612 28.6612 28.6612 28.6612 28.6612 28.6612 28.6612 28.6612 28.6612 68.6612 28.6612 28.6612 28.6612 28.6612 28.6612 28.6612 31.6612 28.6612 28.6612 28.6612 28.6612 28.6612 28.6612 28.6612 28.6612 28.6612 28.6612 28.6612 28.6612 28.6612 28.6612 28.6612 28.6612 28.6612 28.6612 28.6612 28.6612 28.6612 28.6612 28.6612 28.6612 28.6612 28.6612 28.6612 28.6612 28.6612 28.6612 28.6612 28.6612 28.6612 28.6612 28.6612 28.6612 28.6612 28.6612 28.6612 28.6612 28.6612 28.6612 28.6612 28.6612 28.6612 28.6612 28.6612 28.6612 28.6612 28.6612 28.6612 28.6612 28.6612 28.6612 28.6612 28.6612 28.6612 28.6612 28.6612 28.6612 28.6612 28.6612 28.6612 28.6612 28.6612 28.6612 28.6612 28.6612 28.6612 28.6612 28.6612 52.6612 28.6612 28.6612 123.661 28.6612 97.6612 28.6612 28.6612 28.6612 28.6612 28.6612 28.6612 28.6612 28.6612 28.6612 28.6612 28.6612 28.6612 28.6612 28.6612 28.6612 28.6612 28.6612 28.6612 28.6612 28.6612 28.6612 28.6612 28.6612 28.6612 28.6612 28.6612 28.6612 28.6612 28.6612 28.6612 28.6612 28.6612 28.6612 28.6612 28.6612 28.6612 28.6612 28.6612 28.6612 28.6612 43.6612 28.6612 28.6612 28.6612 28.6612 28.6612 28.6612 28.6612 28.6612 28.6612 28.6612 28.6612 28.6612 28.6612 28.6612 28.6612 28.6612 28.6612 28.6612 28.6612 28.6612 28.6612 28.6612 28.6612 28.6612 28.6612 28.6612 28.6612 28.6612 28.6612 28.6612 28.6612 28.6612 28.6612 28.6612 89.6612 28.6612 28.6612 28.6612 28.6612 28.6612 28.6612 28.6612 28.6612 28.6612 28.6612 28.6612 28.6612 28.6612 28.6612 28.6612 28.6612 28.6612 28.6612 51.6612 28.6612 28.6612 28.6612 28.6612 28.6612 28.6612 29.6612 28.6612 28.6612 80.6612 46.6612 28.6612 28.6612 28.6612 28.6612 28.6612 28.6612 28.6612 28.6612 28.6612 28.6612 28.6612 28.6612 28.6612 28.6612 28.6612 28.6612 28.6612 28.6612 28.6612 28.6612 28.6612 28.6612 28.6612 28.6612 28.6612 28.6612 28.6612 36.6612 28.6612 28.6612 28.6612 28.6612 28.6612 28.6612 28.6612 28.6612 28.6612 28.6612 28.6612 28.6612 28.6612 28.6612 28.6612 28.6612 28.6612 28.6612 28.6612 28.6612 28.6612 28.6612 28.6612 28.6612 28.6612 28.6612 28.6612 28.6612 28.6612 28.6612 28.6612 28.6612 28.6612 28.6612 28.6612 28.6612 28.6612 28.6612 28.6612 28.6612 28.6612 28.6612 28.6612 28.6612 28.6612 28.6612 28.6612 28.6612 28.6612 28.6612 28.6612 28.6612 28.6612 28.6612 28.6612 28.6612 28.6612 28.6612 28.6612 28.6612 28.6612 28.6612 28.6612 166.661 28.6612 28.6612 28.6612 28.6612 28.6612 28.6612 28.6612 28.6612 28.6612 28.6612 28.6612 28.6612 28.6612 28.6612 28.6612 28.6612 28.6612 144.661 28.6612 28.6612 28.6612 28.6612 28.6612 28.6612 28.6612 28.6612 28.6612 28.6612 28.6612 28.6612 28.6612 28.6612 28.6612 28.6612 28.6612 176.661 28.6612 28.6612 28.6612 28.6612 28.6612 28.6612 28.6612 28.6612 28.6612 28.6612 28.6612 28.6612 28.6612 29.6612 28.6612 28.6612 28.6612 28.6612 28.6612 28.6612 28.6612 28.6612 28.6612 28.6612 28.6612 28.6612 28.6612 28.6612 28.6612 28.6612 28.6612 28.6612 28.6612 28.6612 28.6612 28.6612 28.6612 28.6612 28.6612 28.6612 28.6612 28.6612 28.6612 28.6612 28.6612 28.6612 28.6612 28.6612 28.6612 28.6612 28.6612 28.6612 28.6612 28.6612 36.6612 28.6612 28.6612 28.6612 28.6612 28.6612 28.6612 28.6612 28.6612 28.6612 89.6612 28.6612 54.6612 28.6612 28.6612 28.6612 28.6612 28.6612 28.6612 28.6612 332.661 28.6612 28.6612 28.6612 28.6612 28.6612 28.6612 28.6612 28.6612 28.6612 28.6612 28.6612 28.6612 28.6612 28.6612 28.6612 28.6612 28.6612 28.6612 28.6612 28.6612 28.6612 28.6612 28.6612 28.6612 28.6612 28.6612 28.6612 28.6612 28.6612 28.6612 28.6612 28.6612 28.6612 28.6612 28.6612 28.6612 28.6612 28.6612 28.6612 28.6612 28.6612 28.6612 28.6612 28.6612 28.6612 28.6612 28.6612 28.6612 28.6612 28.6612 28.6612 28.6612 28.6612 28.6612 28.6612 28.6612 28.6612 28.6612 28.6612 28.6612 28.6612 28.6612 70.6612 28.6612 28.6612 28.6612 28.6612 28.6612 29.6612 28.6612 28.6612 28.6612 28.6612 28.6612 28.6612 28.6612 28.6612 28.6612 28.6612 28.6612 28.6612 222.661 28.6612 28.6612 28.6612 28.6612 28.6612 28.6612 28.6612 28.6612 28.6612 28.6612 82.6612 28.6612 28.6612 28.6612 28.6612 28.6612 28.6612 28.6612 28.6612 28.6612 28.6612 28.6612 38.6612 28.6612 28.6612 28.6612 28.6612 28.6612 28.6612 28.6612 28.6612 28.6612 28.6612 28.6612 28.6612 28.6612 28.6612 28.6612 28.6612 28.6612 28.6612 28.6612 28.6612 28.6612 28.6612 28.6612 28.6612 28.6612 28.6612 28.6612 28.6612 28.6612 28.6612 28.6612 28.6612 28.6612 28.6612 28.6612 28.6612 28.6612 28.6612 28.6612 33.6612 28.6612 28.6612 28.6612 28.6612 28.6612 28.6612 28.6612 28.6612 28.6612 28.6612 28.6612 28.6612 28.6612 28.6612 28.6612 28.6612 140.661 28.6612 28.6612 28.6612 28.6612 28.6612 28.6612 28.6612 28.6612 28.6612 28.6612 28.6612 28.6612 28.6612 28.6612 28.6612 28.6612 28.6612 28.6612 28.6612 28.6612 28.6612 28.6612 28.6612 28.6612 28.6612 28.6612 28.6612 66.6612 28.6612 28.6612 28.6612 28.6612 28.6612 28.6612 28.6612 28.6612 36.6612 28.6612 28.6612 28.6612 28.6612 28.6612 28.6612 28.6612 28.6612 28.6612 29.6612 28.6612 28.6612 28.6612 28.6612 40.6612 28.6612 28.6612 28.6612 28.6612 28.6612 161.661 28.6612 28.6612 188.661 28.6612 28.6612 28.6612 28.6612 28.6612 28.6612 126.661 196.661 28.6612 28.6612 28.6612 28.6612 28.6612 28.6612 28.6612 28.6612 28.6612 28.6612 28.6612 28.6612 28.6612 28.6612 28.6612 28.6612 28.6612 28.6612 28.6612 28.6612 28.6612 28.6612 28.6612 28.6612 28.6612 28.6612 28.6612 28.6612 28.6612 28.6612 28.6612 28.6612 28.6612 28.6612 28.6612 28.6612 31.6612 28.6612 28.6612 32.6612 28.6612 28.6612 28.6612 28.6612 28.6612 28.6612 28.6612 28.6612 28.6612 28.6612 28.6612 34.6612 44.6612 28.6612 28.6612 28.6612 28.6612 28.6612 28.6612 28.6612 28.6612 32.6612 28.6612 40.6612 28.6612 28.6612 28.6612 28.6612 28.6612 28.6612 28.6612 28.6612 28.6612 28.6612 28.6612 28.6612 28.6612 28.6612 41.6612 28.6612 28.6612 28.6612 28.6612 28.6612 28.6612 28.6612 28.6612 28.6612 28.6612 28.6612 28.6612 28.6612 28.6612 28.6612 28.6612 28.6612 28.6612 28.6612 28.6612 62.6612 28.6612 28.6612 28.6612 28.6612 107.661 28.6612 28.6612 28.6612 28.6612 28.6612 28.6612 28.6612 28.6612 28.6612 28.6612 28.6612 28.6612 28.6612 28.6612 28.6612 28.6612 28.6612 28.6612 227.661 28.6612 28.6612 28.6612 28.6612 28.6612 28.6612 28.6612 86.6612 28.6612 28.6612 28.6612 28.6612 28.6612 28.6612 28.6612 28.6612 28.6612 28.6612 28.6612 28.6612 28.6612 28.6612 88.6612 162.661 28.6612 28.6612 28.6612 28.6612 28.6612 28.6612 28.6612 28.6612 28.6612 28.6612 28.6612 28.6612 28.6612 28.6612 28.6612 28.6612 28.6612 28.6612 28.6612 28.6612 30.6612 28.6612 28.6612 28.6612 28.6612 28.6612 28.6612 28.6612 28.6612 28.6612 28.6612 28.6612 96.6612 28.6612 66.6612 28.6612 28.6612 28.6612 28.6612 28.6612 28.6612 28.6612 28.6612 28.6612 28.6612 28.6612 28.6612 28.6612 28.6612 28.6612 28.6612 28.6612 28.6612 28.6612 28.6612 28.6612 28.6612 28.6612 28.6612 28.6612 28.6612 35.6612 28.6612 28.6612 28.6612 28.6612 28.6612 28.6612 28.6612 92.6612 28.6612 28.6612 28.6612 28.6612 28.6612 28.6612 28.6612 28.6612 28.6612 28.6612 28.6612 28.6612 28.6612 28.6612 28.6612 28.6612 28.6612 28.6612 31.6612 28.6612 28.6612 28.6612 28.6612 28.6612 28.6612 28.6612 28.6612 172.661 28.6612 28.6612 28.6612 28.6612 28.6612 28.6612 28.6612 28.6612 28.6612 28.6612 28.6612 28.6612 28.6612 28.6612 28.6612 28.6612 28.6612 28.6612 57.6612 28.6612 28.6612 58.6612 28.6612 28.6612 28.6612 28.6612 28.6612 28.6612 28.6612 28.6612 28.6612 28.6612 28.6612 28.6612 28.6612 28.6612 28.6612 28.6612 28.6612 28.6612 28.6612 28.6612 28.6612 28.6612 28.6612 28.6612 28.6612 28.6612 28.6612 28.6612 28.6612 28.6612 109.661 28.6612 28.6612 182.661 28.6612 28.6612 28.6612 110.661 28.6612 28.6612 28.6612 28.6612 28.6612 28.6612 28.6612 28.6612 28.6612 28.6612 28.6612 28.6612 28.6612 28.6612 28.6612 28.6612 28.6612 28.6612 28.6612 28.6612 28.6612 28.6612 58.6612 28.6612 28.6612 28.6612 28.6612 28.6612 28.6612 28.6612 28.6612 28.6612 51.6612 48.6612 28.6612 28.6612 28.6612 28.6612 28.6612 28.6612 28.6612 28.6612 28.6612 28.6612 28.6612 28.6612 28.6612 28.6612 28.6612 28.6612 28.6612 60.6612 102.661 28.6612 28.6612 28.6612 28.6612 28.6612 28.6612 115.661 28.6612 28.6612 28.6612 28.6612 28.6612 28.6612 28.6612 28.6612 28.6612 28.6612 28.6612 28.6612 28.6612 28.6612 28.6612 28.6612 28.6612 28.6612 28.6612 28.6612 28.6612 28.6612 28.6612 28.6612 28.6612 28.6612 28.6612 28.6612 28.6612 28.6612 28.6612 28.6612 28.6612 28.6612 28.6612 28.6612 28.6612 28.6612 28.6612 28.6612 28.6612 28.6612 28.6612 28.6612 28.6612 28.6612 28.6612 28.6612 28.6612 28.6612 28.6612 28.6612 45.6612 28.6612 28.6612 28.6612 28.6612 28.6612 28.6612 28.6612 28.6612 28.6612 28.6612 28.6612 28.6612 28.6612 28.6612 28.6612 28.6612 28.6612 28.6612 28.6612 28.6612 28.6612 28.6612 28.6612 28.6612 28.6612 28.6612 28.6612 28.6612 28.6612 28.6612 201.661 32.6612 28.6612 28.6612 28.6612 28.6612 28.6612 28.6612 28.6612 
rewards of Offsets elements: 0 786 345 0 0 1071 0 0 0 857 0 0 0 0 0 0 0 0 0 0 0 34 0 0 0 0 144 0 0 0 0 0 0 0 0 0 0 0 0 66 27 0 474 0 0 0 0 0 0 0 0 36 0 0 0 0 0 0 0 0 317 254 0 0 723 426 0 0 0 0 129 0 0 0 0 7 0 0 0 0 0 0 0 13 0 225 0 0 0 0 0 0 0 0 26 0 0 0 0 319 0 0 0 1 0 0 0 128 2 0 0 9 0 0 0 0 0 0 0 0 0 0 0 0 394 0 0 0 0 411 0 0 0 0 0 0 0 0 98 0 0 250 0 0 0 0 0 0 0 0 0 0 0 0 0 0 0 0 0 0 1 0 0 0 57 0 0 0 0 0 0 0 0 0 0 0 0 0 0 0 0 0 270 0 0 0 4 0 0 0 0 0 0 0 0 0 0 0 0 0 0 0 0 0 0 0 0 0 0 0 0 491 0 0 0 0 0 166 0 0 0 0 65 183 845 0 0 126 0 80 0 0 0 0 0 139 0 137 0 0 0 0 0 0 41 0 0 0 0 0 266 0 0 0 10 1 0 0 90 0 0 0 0 0 0 0 0 0 0 0 0 0 0 0 0 0 0 0 0 0 0 0 0 0 107 0 0 0 0 0 0 0 0 0 0 0 456 0 0 0 0 0 0 0 0 0 0 0 0 0 0 0 304 0 0 0 0 0 0 0 0 0 0 0 0 0 0 0 313 0 158 0 0 0 0 0 0 0 0 0 0 0 0 0 170 0 0 0 0 0 0 0 0 71 25 0 0 0 0 0 0 0 0 0 0 0 0 0 0 0 0 0 0 0 0 224 0 0 0 0 0 0 0 0 0 0 0 0 0 0 0 0 0 0 0 0 0 0 0 0 0 86 1 122 93 15 8 0 0 0 0 0 0 89 0 0 0 0 0 0 0 0 0 14 0 0 0 0 0 0 0 0 0 0 0 0 0 0 0 0 0 0 0 0 0 0 21 0 0 0 215 0 0 0 156 123 0 0 0 0 0 0 0 0 182 0 0 0 0 0 135 0 0 0 0 0 45 190 151 115 0 0 0 0 53 0 0 0 0 19 72 0 51 0 0 18 0 0 0 0 0 0 23 32 0 0 0 0 4 0 48 16 0 8 0 0 0 48 272 150 0 0 1 0 0 0 0 1 0 0 0 1 0 0 0 39 0 0 0 32 0 0 0 0 0 0 140 0 0 0 3 0 0 0 0 0 0 0 0 0 0 0 0 0 0 18 9 4 0 0 30 169 0 0 0 0 0 0 0 0 0 0 0 64 22 0 0 0 18 0 0 0 0 0 24 0 0 0 1 0 4 0 0 0 0 0 0 0 442 0 0 14 0 0 27 0 0 0 0 52 0 0 0 0 0 51 0 0 0 0 0 0 0 0 0 0 0 0 34 0 0 0 0 0 0 0 0 0 0 0 0 0 0 0 0 0 0 0 0 0 0 0 0 0 0 0 0 0 0 0 73 0 0 254 0 0 0 0 0 0 0 0 0 0 0 299 0 0 0 0 0 0 298 0 0 0 0 0 0 0 208 0 0 0 0 2 0 0 0 0 0 0 0 0 0 0 0 0 0 0 0 0 0 0 0 118 99 88 88 0 0 1 0 0 0 0 0 0 0 0 0 0 0 0 0 0 0 0 0 0 0 0 0 0 0 0 0 0 0 0 0 0 0 0 0 0 0 0 0 0 0 0 0 0 0 0 0 0 0 0 0 0 0 0 0 6 71 0 0 0 0 0 0 0 0 0 0 0 0 0 0 0 0 0 0 0 0 0 0 0 0 0 0 0 0 0 0 0 0 0 0 0 0 0 0 0 0 0 0 0 0 0 0 0 0 0 0 0 0 0 0 0 10 0 0 0 0 0 0 0 0 0 0 0 0 0 0 0 0 0 0 0 0 0 0 0 0 0 0 54 129 0 0 0 57 0 95 0 0 0 0 43 157 0 0 0 0 0 0 0 0 0 0 0 0 0 161 0 0 0 0 0 0 129 0 0 0 0 0 0 0 0 0 0 426 0 0 0 0 0 0 0 0 0 0 0 0 0 46 0 0 0 0 0 0 0 0 335 0 0 0 0 111 0 0 0 0 0 0 0 0 0 0 0 0 0 0 0 0 0 0 0 0 0 0 0 0 0 0 0 0 0 0 0 0 0 0 0 0 0 0 0 0 0 0 0 0 0 0 0 0 0 0 0 0 0 0 0 0 0 40 0 0 0 0 0 0 0 0 0 0 0 0 0 0 0 0 0 0 0 0 0 0 0 0 0 0 0 0 0 0 0 0 0 0 0 0 0 0 0 0 0 0 0 0 0 0 0 0 0 0 0 0 0 0 0 0 0 0 0 0 0 0 0 0 0 0 0 0 0 14 31 0 0 0 0 42 0 0 0 120 0 0 0 0 0 0 0 0 0 0 0 0 0 0 0 0 0 0 0 0 0 0 0 0 0 0 0 0 0 0 52 0 0 0 0 36 0 0 0 0 0 0 0 0 0 0 160 0 0 0 0 0 0 65 0 0 0 0 0 0 0 0 170 50 0 0 0 0 0 0 0 0 0 0 0 0 0 0 0 165 0 0 0 0 0 0 0 0 0 0 0 0 0 0 51 0 0 0 0 0 0 0 0 0 108 0 0 0 0 0 0 0 0 0 0 0 0 0 0 0 0 0 0 0 0 0 0 0 0 30 46 0 49 0 0 0 0 0 0 0 0 0 0 0 136 212 102 37 131 0 0 0 0 0 0 0 0 0 0 0 0 0 0 108 0 0 0 0 0 0 0 0 0 0 0 0 0 0 0 0 0 0 0 0 0 0 0 0 0 0 0 0 0 0 0 0 0 0 0 0 0 0 0 0 0 0 0 0 0 0 0 44 0 0 0 0 0 0 72 30 0 0 0 0 146 0 0 0 0 0 0 0 65 0 0 61 0 0 90 130 0 0 0 0 0 0 0 0 0 0 20 0 0 0 0 0 0 0 0 0 0 0 0 0 0 0 0 0 0 0 0 0 0 0 0 0 0 0 0 0 0 0 0 0 0 0 0 0 0 0 0 0 0 0 0 0 0 0 40 0 0 0 0 0 0 3 0 0 0 0 0 0 0 0 0 0 0 0 0 0 0 0 0 0 0 0 0 0 0 0 0 0 0 0 0 0 0 0 0 0 0 0 0 0 0 0 0 0 0 0 0 0 0 0 0 0 0 0 0 0 0 0 0 0 0 0 0 0 0 0 0 0 0 0 0 0 0 24 0 0 95 0 69 0 0 0 0 0 0 0 0 0 0 0 0 0 0 0 0 0 0 0 0 0 0 0 0 0 0 0 0 0 0 0 0 0 0 0 0 0 0 0 0 15 0 0 0 0 0 0 0 0 0 0 0 0 0 0 0 0 0 0 0 0 0 0 0 0 0 0 0 0 0 0 0 0 0 0 61 0 0 0 0 0 0 0 0 0 0 0 0 0 0 0 0 0 0 23 0 0 0 0 0 0 1 0 0 52 18 0 0 0 0 0 0 0 0 0 0 0 0 0 0 0 0 0 0 0 0 0 0 0 0 0 0 0 8 0 0 0 0 0 0 0 0 0 0 0 0 0 0 0 0 0 0 0 0 0 0 0 0 0 0 0 0 0 0 0 0 0 0 0 0 0 0 0 0 0 0 0 0 0 0 0 0 0 0 0 0 0 0 0 0 0 0 0 0 0 0 0 138 0 0 0 0 0 0 0 0 0 0 0 0 0 0 0 0 0 116 0 0 0 0 0 0 0 0 0 0 0 0 0 0 0 0 0 148 0 0 0 0 0 0 0 0 0 0 0 0 0 1 0 0 0 0 0 0 0 0 0 0 0 0 0 0 0 0 0 0 0 0 0 0 0 0 0 0 0 0 0 0 0 0 0 0 0 0 0 0 0 0 8 0 0 0 0 0 0 0 0 0 61 0 26 0 0 0 0 0 0 0 304 0 0 0 0 0 0 0 0 0 0 0 0 0 0 0 0 0 0 0 0 0 0 0 0 0 0 0 0 0 0 0 0 0 0 0 0 0 0 0 0 0 0 0 0 0 0 0 0 0 0 0 0 0 0 0 0 0 0 0 0 0 0 42 0 0 0 0 0 1 0 0 0 0 0 0 0 0 0 0 0 0 194 0 0 0 0 0 0 0 0 0 0 54 0 0 0 0 0 0 0 0 0 0 0 10 0 0 0 0 0 0 0 0 0 0 0 0 0 0 0 0 0 0 0 0 0 0 0 0 0 0 0 0 0 0 0 0 0 0 0 0 0 0 0 5 0 0 0 0 0 0 0 0 0 0 0 0 0 0 0 0 112 0 0 0 0 0 0 0 0 0 0 0 0 0 0 0 0 0 0 0 0 0 0 0 0 0 0 0 38 0 0 0 0 0 0 0 0 8 0 0 0 0 0 0 0 0 0 1 0 0 0 0 12 0 0 0 0 0 133 0 0 160 0 0 0 0 0 0 98 168 0 0 0 0 0 0 0 0 0 0 0 0 0 0 0 0 0 0 0 0 0 0 0 0 0 0 0 0 0 0 0 0 0 0 0 0 3 0 0 4 0 0 0 0 0 0 0 0 0 0 0 6 16 0 0 0 0 0 0 0 0 4 0 12 0 0 0 0 0 0 0 0 0 0 0 0 0 0 13 0 0 0 0 0 0 0 0 0 0 0 0 0 0 0 0 0 0 0 0 34 0 0 0 0 79 0 0 0 0 0 0 0 0 0 0 0 0 0 0 0 0 0 0 199 0 0 0 0 0 0 0 58 0 0 0 0 0 0 0 0 0 0 0 0 0 0 60 134 0 0 0 0 0 0 0 0 0 0 0 0 0 0 0 0 0 0 0 0 2 0 0 0 0 0 0 0 0 0 0 0 68 0 38 0 0 0 0 0 0 0 0 0 0 0 0 0 0 0 0 0 0 0 0 0 0 0 0 0 0 7 0 0 0 0 0 0 0 64 0 0 0 0 0 0 0 0 0 0 0 0 0 0 0 0 0 0 3 0 0 0 0 0 0 0 0 144 0 0 0 0 0 0 0 0 0 0 0 0 0 0 0 0 0 0 29 0 0 30 0 0 0 0 0 0 0 0 0 0 0 0 0 0 0 0 0 0 0 0 0 0 0 0 0 0 0 0 0 0 81 0 0 154 0 0 0 82 0 0 0 0 0 0 0 0 0 0 0 0 0 0 0 0 0 0 0 0 0 0 30 0 0 0 0 0 0 0 0 0 23 20 0 0 0 0 0 0 0 0 0 0 0 0 0 0 0 0 0 32 74 0 0 0 0 0 0 87 0 0 0 0 0 0 0 0 0 0 0 0 0 0 0 0 0 0 0 0 0 0 0 0 0 0 0 0 0 0 0 0 0 0 0 0 0 0 0 0 0 0 0 0 0 0 0 0 0 0 0 0 17 0 0 0 0 0 0 0 0 0 0 0 0 0 0 0 0 0 0 0 0 0 0 0 0 0 0 0 0 0 0 173 4 0 0 0 0 0 0 0 Printing Sanity3
offset_index value2462
offset list size2462
reward size2462
potential size2462
-----------------------------------------------------------------------------------------------------------------------------------------------------------------------------------------------------

DRAM Statistics
 CHANNEL 0
 RQ ROW_BUFFER_HIT:         61  ROW_BUFFER_MISS:        467
 DBUS_CONGESTED:          0
 WQ ROW_BUFFER_HIT:          0  ROW_BUFFER_MISS:          0  FULL:          0

 AVG_CONGESTED_CYCLE: -
 All warmup complete: 2
Channel 0 Bank busy for read cycles: 0
Channel 0 Bank busy for write cycles: 0
Channel 0
Rank 0
0banks busy for read cycles: 329741964
0banks busy for write cycles: 0
1banks busy for read cycles: 72128
1banks busy for write cycles: 0
2banks busy for read cycles: 486
2banks busy for write cycles: 0
3banks busy for read cycles: 0
3banks busy for write cycles: 0
4banks busy for read cycles: 0
4banks busy for write cycles: 0
5banks busy for read cycles: 0
5banks busy for write cycles: 0
6banks busy for read cycles: 0
6banks busy for write cycles: 0
7banks busy for read cycles: 0
7banks busy for write cycles: 0
8banks busy for read cycles: 0
8banks busy for write cycles: 0

CPU 0 Branch Prediction Accuracy: 99.8703% MPKI: 0.256795 Average ROB Occupancy at Mispredict: 41.0543
Branch types
NOT_BRANCH: 160404714 80.2024%
BRANCH_DIRECT_JUMP: 3454569 1.72728%
BRANCH_INDIRECT: 13788073 6.89404%
BRANCH_CONDITIONAL: 13020077 6.51004%
BRANCH_DIRECT_CALL: 2450867 1.22543%
BRANCH_INDIRECT_CALL: 2215440 1.10772%
BRANCH_RETURN: 4666257 2.33313%
BRANCH_OTHER: 0 0%

DRAM PAGES: 1048576
Allocated PAGES: 1240
