
*** ChampSim Multicore Out-of-Order Simulator ***

Warmup Instructions: 50000000
Simulation Instructions: 200000000
Number of CPUs: 1
LLC sets: 2048
LLC ways: 16
Off-chip DRAM Size: 4096 MB Channels: 1 Width: 64-bit Data Rate: 6400 MT/s
CPU 0 runs traces/spec2k17/srv_18.champsimtrace.xz
.xz
BTB has LRU replacement policy
ITLB has LRU replacement policy
DTLB has LRU replacement policy
STLB has LRU replacement policy
L1I has LRU replacement policy
L1D has LRU replacement policy
Initialize SRRIP state for L2C
Initialize DRRIP state for LLC
Offsets elements: 
Potential of Offsets elements: 
rewards of Offsets elements: 
Printing Sanity1
offset list size2408
Offsets elements: 
Potential of Offsets elements: 
rewards of Offsets elements: 0 42 141 0 0 0 0 2754 0 0 0 1436 628 93 45 894 0 0 0 0 1636 1526 0 0 546 0 0 0 0 0 0 324 2115 0 0 0 1332 304 16 0 0 0 0 0 0 0 0 0 0 86 187 0 0 0 0 0 0 0 0 0 0 299 0 0 130 0 0 141 4 8 562 0 485 0 0 0 0 506 0 0 0 0 0 0 0 0 0 0 0 0 0 0 0 0 0 0 0 17 0 0 0 60 2 33 38 98 84 500 56 360 0 0 0 0 0 0 0 0 0 0 0 0 0 0 0 0 0 22 0 0 0 0 0 0 0 0 55 0 871 30 0 37 245 4 17 0 0 0 0 0 0 0 0 0 36 0 0 0 0 0 0 0 0 0 0 0 0 0 0 0 0 28 0 0 0 0 58 0 53 0 205 0 2 0 0 0 0 12 0 0 0 0 0 0 0 0 0 0 0 0 0 0 0 0 0 0 0 0 0 0 0 0 0 0 0 0 736 30 52 12 0 0 15 0 0 0 0 0 0 0 0 0 0 0 0 0 0 0 0 0 0 0 0 0 0 0 0 0 0 0 0 0 0 0 495 451 0 2 0 0 0 0 0 0 0 0 0 0 0 0 0 0 0 23 2 0 0 39 0 0 0 0 0 0 0 0 70 0 0 0 0 0 0 0 0 38 0 0 0 0 0 0 0 0 0 0 0 0 0 0 0 0 507 0 3 0 0 0 0 0 12 0 0 0 0 0 0 0 0 0 0 0 18 44 0 0 0 0 0 0 0 0 0 0 0 0 38 0 0 1 3 0 0 0 0 0 0 0 0 0 0 224 0 0 0 188 0 0 0 0 0 0 0 0 0 305 0 114 0 0 0 0 0 0 0 0 0 0 22 0 0 0 0 15 0 0 0 0 0 0 0 0 0 0 0 0 33 0 0 0 0 0 0 0 0 0 0 0 0 0 0 0 0 0 0 0 0 14 0 74 0 0 0 0 0 0 0 0 382 0 0 0 0 0 17 5 0 0 0 0 0 0 0 0 0 0 0 0 0 0 0 0 0 0 0 0 0 0 0 0 0 0 0 0 0 0 0 0 0 0 0 0 0 299 0 0 93 0 0 0 0 0 0 0 0 0 0 0 0 0 0 0 0 0 0 0 0 0 0 0 0 1 0 0 0 0 0 0 0 0 0 0 0 0 0 0 0 0 0 0 0 0 0 0 0 0 0 0 0 0 0 0 0 0 0 0 0 0 0 0 0 0 0 0 0 0 196 32 22 0 0 0 0 0 0 0 0 36 0 0 0 0 0 0 0 0 0 0 0 0 0 0 0 0 0 0 20 465 658 126 0 10 0 0 20 12 0 0 0 0 0 0 0 0 0 0 0 0 0 0 0 0 0 0 0 0 0 0 0 0 0 0 0 0 0 0 0 21 0 0 1 22 0 0 0 0 0 9 0 0 0 8 0 0 0 252 5 36 0 0 140 0 0 0 0 0 0 0 0 0 0 0 0 96 0 0 0 0 0 14 0 82 0 0 0 0 0 0 0 0 0 0 0 0 6 0 0 0 1 294 0 0 0 0 0 0 0 0 0 0 438 7 0 0 0 0 0 0 0 202 0 0 0 0 0 0 0 0 0 0 468 6 8 90 0 6 0 81 0 0 0 0 0 0 0 0 0 0 0 0 0 3 94 0 0 0 0 0 210 0 0 0 0 0 0 208 360 0 138 0 0 0 0 0 0 0 0 0 0 0 0 0 0 0 0 0 17 0 8 0 0 0 0 0 294 114 74 0 0 0 0 0 0 0 0 0 0 0 0 54 0 0 0 558 0 0 0 0 7 0 0 2 0 0 0 0 20 0 150 0 14 48 51 0 624 0 0 0 0 0 0 0 0 0 0 0 0 0 0 85 0 1 0 0 0 0 0 0 0 0 0 0 45 0 0 0 0 0 3 384 0 0 0 0 0 0 0 0 0 0 0 0 0 0 0 0 0 30 0 28 0 0 0 2 0 0 0 73 2 0 0 0 3 0 0 0 50 0 0 0 0 0 0 0 0 0 0 0 0 0 0 0 0 0 0 0 0 0 0 0 19 0 0 86 5 96 0 0 338 1 3 0 0 0 29 18 0 0 0 0 0 0 0 3 0 0 62 0 1 0 0 0 39 30 4 0 0 150 0 0 0 0 0 0 1 0 166 0 0 0 46 23 0 120 0 0 0 0 0 0 0 0 0 0 0 0 8 0 0 0 0 0 0 0 0 0 0 0 0 0 187 21 0 0 0 0 0 0 0 1125 40 0 0 0 0 0 0 0 0 0 0 0 0 0 0 0 0 0 0 0 0 0 0 0 0 0 290 159 71 0 0 33 0 0 0 0 100 0 0 0 0 0 0 363 0 0 0 0 0 0 0 0 0 0 140 0 0 0 0 0 0 0 0 0 37 220 0 357 0 0 0 0 354 221 0 0 0 0 0 0 0 0 0 132 95 0 0 0 0 0 0 0 0 0 0 149 0 0 0 41 0 0 0 0 0 3 0 0 35 44 33 0 0 0 0 0 0 0 57 15 0 0 0 0 0 0 8 0 0 0 0 4 56 11 0 0 0 68 51 1 0 0 96 0 0 0 0 6 0 0 0 0 0 0 0 0 0 0 0 0 0 0 0 0 0 0 0 0 0 4 0 0 0 44 0 0 0 0 0 0 0 0 0 0 1 0 0 0 0 0 0 0 0 0 0 0 352 0 0 0 0 0 0 24 0 0 0 0 0 0 0 0 0 0 0 0 0 3 8 4 0 0 624 0 0 0 0 0 0 0 0 0 0 0 0 0 0 0 0 60 180 0 0 0 0 0 0 0 0 0 15 0 0 0 0 0 0 0 0 159 0 0 0 0 0 0 0 0 0 0 0 0 0 0 0 0 0 0 104 0 0 0 0 0 0 0 0 0 0 0 0 0 0 0 0 0 0 0 0 0 0 0 0 0 473 0 0 0 0 2 0 0 0 0 0 0 2 134 0 0 0 0 0 0 0 0 0 0 0 0 0 0 0 0 0 0 0 0 0 0 0 0 0 0 0 2 42 0 0 0 0 0 0 0 0 0 0 0 0 0 0 0 100 9 5 0 0 0 0 0 0 0 0 0 0 0 44 0 0 12 0 0 0 0 0 0 0 0 0 0 0 98 0 0 0 0 0 0 0 0 28 0 0 0 0 0 0 0 0 0 0 0 38 0 0 1 0 0 0 0 0 0 0 183 0 0 0 0 0 0 0 15 0 0 0 0 0 0 0 0 0 0 0 0 0 0 0 0 0 3 0 0 4 0 0 0 0 0 0 0 0 0 0 0 0 0 0 0 0 0 0 70 22 972 40 0 0 0 0 0 0 0 0 0 0 404 0 178 0 0 0 95 0 0 0 0 61 0 0 0 0 0 47 0 0 0 16 0 0 0 0 0 0 0 0 0 0 0 0 0 0 0 0 0 43 196 0 41 0 0 0 0 0 0 0 0 0 0 0 0 0 0 0 0 0 2 0 21 251 0 0 0 0 0 0 0 0 0 0 0 0 9 258 0 0 4 0 0 0 0 0 0 0 0 0 0 0 0 0 0 244 68 8 0 0 173 0 0 0 0 0 366 0 37 0 0 0 0 0 294 81 16 0 80 0 0 0 0 0 0 0 0 0 0 0 0 0 0 0 0 10 0 0 12 0 0 0 0 0 0 0 0 0 0 0 0 0 125 25 0 0 0 0 0 0 0 0 0 0 0 0 0 0 0 0 0 0 0 0 0 0 0 0 0 0 0 0 0 0 0 0 0 0 0 60 0 0 0 0 0 0 0 0 0 0 0 0 0 0 0 0 0 0 0 0 0 0 0 0 0 0 0 0 0 0 0 0 0 0 0 0 0 0 0 0 18 0 0 0 0 0 0 0 0 0 0 0 0 0 0 0 71 34 0 0 0 0 0 0 0 0 0 0 0 0 0 0 0 0 0 0 0 0 0 0 10 0 0 0 0 0 0 0 0 0 0 0 10 74 225 114 0 0 1 0 0 0 0 0 0 0 0 0 0 0 0 0 0 0 0 0 0 0 0 0 0 0 0 0 0 0 0 0 0 0 0 0 24 0 0 0 0 0 0 0 0 0 0 0 0 0 0 0 0 0 4 1 0 0 0 0 0 0 0 0 0 0 0 0 0 0 0 0 0 33 0 0 0 0 0 0 66 0 0 0 0 0 0 0 0 0 0 0 0 0 0 0 0 0 0 0 0 0 0 0 0 0 0 0 0 0 0 0 0 14 0 0 4 0 0 0 0 0 0 0 0 0 0 0 0 0 10 0 0 0 0 0 0 0 0 0 0 0 0 0 0 0 0 0 0 0 0 0 0 0 10 0 0 0 0 0 0 0 0 0 0 0 0 12 9 0 0 0 0 0 0 0 0 0 0 0 0 0 0 0 0 0 0 0 0 0 0 0 0 0 0 0 0 0 0 0 0 0 0 0 0 48 0 0 0 0 0 0 0 0 0 0 0 0 6 0 39 86 0 0 1 120 60 0 0 0 0 103 0 0 0 0 0 0 0 0 0 0 3 0 0 0 0 0 0 0 0 0 0 0 0 0 0 0 0 0 0 53 0 0 0 0 0 0 0 0 0 0 91 0 0 0 0 0 0 0 0 0 0 0 0 0 0 0 0 0 0 0 0 0 0 0 51 0 0 0 80 0 0 0 0 0 0 0 0 0 0 0 0 0 0 0 0 0 0 0 89 53 0 0 0 0 0 0 0 0 0 0 0 9 0 0 0 0 0 0 45 0 0 18 0 0 0 0 0 0 0 0 0 0 0 0 0 0 70 0 0 0 0 0 0 0 0 0 0 0 0 0 0 0 0 0 0 0 0 0 233 0 0 0 0 0 0 0 0 0 0 0 0 0 53 0 87 0 0 0 0 0 0 0 0 0 0 0 0 0 0 0 0 0 0 0 0 0 0 6 0 0 0 0 0 0 0 0 0 0 0 0 0 0 1 0 0 0 0 0 0 0 0 22 0 0 0 0 0 0 0 0 0 0 0 0 0 0 0 0 0 0 0 0 0 47 0 48 0 0 0 6 0 0 53 0 0 0 0 0 0 0 35 52 0 0 0 0 0 0 0 0 0 0 0 0 0 0 0 0 0 0 0 0 0 19 0 0 1 0 0 1 0 0 0 0 0 0 0 0 0 0 0 0 0 0 218 0 5 201 0 0 0 0 0 0 0 0 0 10 37 0 0 0 0 1 6 0 0 0 0 0 0 0 0 0 0 0 0 0 0 0 0 0 16 0 2 0 0 0 0 0 0 0 0 0 0 0 0 0 0 0 0 136 0 0 0 5 0 0 0 0 0 0 0 0 0 0 0 0 0 0 56 0 0 0 0 0 0 0 0 0 0 0 0 0 0 0 0 0 1 33 0 0 0 0 0 
Printing Sanity2
Heartbeat CPU 0 instructions: 10000003 cycles: 2879888 heartbeat IPC: 3.47236 cumulative IPC: 3.47236 (Simulation time: 0 hr 0 min 19 sec) 
Heartbeat CPU 0 instructions: 20000001 cycles: 5916913 heartbeat IPC: 3.2927 cumulative IPC: 3.38014 (Simulation time: 0 hr 0 min 38 sec) 
Heartbeat CPU 0 instructions: 30000001 cycles: 8953595 heartbeat IPC: 3.29307 cumulative IPC: 3.35061 (Simulation time: 0 hr 0 min 56 sec) 
*** Reached end of trace for Core: 0 Repeating trace: traces/spec2k17/srv_18.champsimtrace.xz
Heartbeat CPU 0 instructions: 40000000 cycles: 11984210 heartbeat IPC: 3.29966 cumulative IPC: 3.33773 (Simulation time: 0 hr 1 min 15 sec) 
Heartbeat CPU 0 instructions: 50000000 cycles: 15017492 heartbeat IPC: 3.29676 cumulative IPC: 3.32945 (Simulation time: 0 hr 1 min 34 sec) 

Warmup complete CPU 0 instructions: 50000004 cycles: 15017493 (Simulation time: 0 hr 1 min 34 sec) 

Heartbeat CPU 0 instructions: 60000001 cycles: 47923858 heartbeat IPC: 0.303893 cumulative IPC: 0.303892 (Simulation time: 0 hr 2 min 11 sec) 
*** Reached end of trace for Core: 0 Repeating trace: traces/spec2k17/srv_18.champsimtrace.xz
Heartbeat CPU 0 instructions: 70000000 cycles: 80178670 heartbeat IPC: 0.310031 cumulative IPC: 0.306931 (Simulation time: 0 hr 2 min 48 sec) 
Heartbeat CPU 0 instructions: 80000001 cycles: 112763441 heartbeat IPC: 0.306892 cumulative IPC: 0.306918 (Simulation time: 0 hr 3 min 25 sec) 
Heartbeat CPU 0 instructions: 90000001 cycles: 145680682 heartbeat IPC: 0.303792 cumulative IPC: 0.306131 (Simulation time: 0 hr 4 min 2 sec) 
*** Reached end of trace for Core: 0 Repeating trace: traces/spec2k17/srv_18.champsimtrace.xz
Heartbeat CPU 0 instructions: 100000000 cycles: 177940075 heartbeat IPC: 0.309987 cumulative IPC: 0.306894 (Simulation time: 0 hr 4 min 38 sec) 
Heartbeat CPU 0 instructions: 110000000 cycles: 210357492 heartbeat IPC: 0.308476 cumulative IPC: 0.307157 (Simulation time: 0 hr 5 min 15 sec) 
Heartbeat CPU 0 instructions: 120000000 cycles: 243178356 heartbeat IPC: 0.304684 cumulative IPC: 0.306801 (Simulation time: 0 hr 5 min 52 sec) 
*** Reached end of trace for Core: 0 Repeating trace: traces/spec2k17/srv_18.champsimtrace.xz
Heartbeat CPU 0 instructions: 130000001 cycles: 275415895 heartbeat IPC: 0.310197 cumulative IPC: 0.307222 (Simulation time: 0 hr 6 min 29 sec) 
Heartbeat CPU 0 instructions: 140000003 cycles: 307855795 heartbeat IPC: 0.308262 cumulative IPC: 0.307337 (Simulation time: 0 hr 7 min 6 sec) 
Heartbeat CPU 0 instructions: 150000001 cycles: 340584972 heartbeat IPC: 0.305538 cumulative IPC: 0.307156 (Simulation time: 0 hr 7 min 44 sec) 
*** Reached end of trace for Core: 0 Repeating trace: traces/spec2k17/srv_18.champsimtrace.xz
Heartbeat CPU 0 instructions: 160000000 cycles: 372934632 heartbeat IPC: 0.309122 cumulative IPC: 0.307334 (Simulation time: 0 hr 8 min 21 sec) 
Heartbeat CPU 0 instructions: 170000000 cycles: 405253107 heartbeat IPC: 0.309421 cumulative IPC: 0.307507 (Simulation time: 0 hr 8 min 58 sec) 
Heartbeat CPU 0 instructions: 180000000 cycles: 437969442 heartbeat IPC: 0.305658 cumulative IPC: 0.307364 (Simulation time: 0 hr 9 min 35 sec) 
*** Reached end of trace for Core: 0 Repeating trace: traces/spec2k17/srv_18.champsimtrace.xz
Heartbeat CPU 0 instructions: 190000002 cycles: 470300269 heartbeat IPC: 0.309302 cumulative IPC: 0.307501 (Simulation time: 0 hr 10 min 12 sec) 
Heartbeat CPU 0 instructions: 200000001 cycles: 502572052 heartbeat IPC: 0.309868 cumulative IPC: 0.307658 (Simulation time: 0 hr 10 min 49 sec) 
Heartbeat CPU 0 instructions: 210000002 cycles: 535391354 heartbeat IPC: 0.304699 cumulative IPC: 0.307471 (Simulation time: 0 hr 11 min 26 sec) 
*** Reached end of trace for Core: 0 Repeating trace: traces/spec2k17/srv_18.champsimtrace.xz
Heartbeat CPU 0 instructions: 220000000 cycles: 567760513 heartbeat IPC: 0.308936 cumulative IPC: 0.307557 (Simulation time: 0 hr 12 min 2 sec) 
Heartbeat CPU 0 instructions: 230000003 cycles: 599955093 heartbeat IPC: 0.310611 cumulative IPC: 0.307725 (Simulation time: 0 hr 12 min 39 sec) 
Heartbeat CPU 0 instructions: 240000001 cycles: 632696245 heartbeat IPC: 0.305426 cumulative IPC: 0.307603 (Simulation time: 0 hr 13 min 16 sec) 
*** Reached end of trace for Core: 0 Repeating trace: traces/spec2k17/srv_18.champsimtrace.xz
Heartbeat CPU 0 instructions: 250000003 cycles: 665136176 heartbeat IPC: 0.308262 cumulative IPC: 0.307636 (Simulation time: 0 hr 13 min 53 sec) 
Finished CPU 0 instructions: 200000003 cycles: 650118684 cumulative IPC: 0.307636 (Simulation time: 0 hr 13 min 53 sec) 

ChampSim completed all CPUs

Region of Interest Statistics

CPU 0 cumulative IPC: 0.307636 instructions: 200000003 cycles: 650118684
ITLB TOTAL     ACCESS:   35680828  HIT:   33493847  MISS:    2186981  HIT %:    93.8707  MISS %:    6.12929   MPKI: 10.9349
ITLB LOAD TRANSLATION ACCESS:   35680828  HIT:   33493847  MISS:    2186981  HIT %:    93.8707  MISS %:    6.12929   MPKI: 10.9349
ITLB PREFETCH  REQUESTED:          0  ISSUED:          0  USEFUL:          0  USELESS:          0
ITLB USEFUL LOAD PREFETCHES:          0 PREFETCH ISSUED TO LOWER LEVEL:          0  ACCURACY: -nan
ITLB TIMELY PREFETCHES:          0 LATE PREFETCHES: 0 DROPPED PREFETCHES: 0
ITLB PREFETCHES SAME FILL-ORIGIN LEVEL: 0 DIFFERENT FILL-ORIGIN LEVEL: 0
ITLB AVERAGE MISS LATENCY: 9.15882 cycles
ITLB RQ	ACCESS:   41852002	FORWARD:          0	MERGED:    5651616	TO_CACHE:   36200386

DTLB TOTAL     ACCESS:   45073570  HIT:   43002086  MISS:    2071484  HIT %:    95.4042  MISS %:    4.59578   MPKI: 10.3574
DTLB LOAD TRANSLATION ACCESS:   45073570  HIT:   43002086  MISS:    2071484  HIT %:    95.4042  MISS %:    4.59578   MPKI: 10.3574
DTLB PREFETCH  REQUESTED:          0  ISSUED:          0  USEFUL:          0  USELESS:          0
DTLB USEFUL LOAD PREFETCHES:          0 PREFETCH ISSUED TO LOWER LEVEL:          0  ACCURACY: -nan
DTLB TIMELY PREFETCHES:          0 LATE PREFETCHES: 0 DROPPED PREFETCHES: 0
DTLB PREFETCHES SAME FILL-ORIGIN LEVEL: 0 DIFFERENT FILL-ORIGIN LEVEL: 0
DTLB AVERAGE MISS LATENCY: 10.4973 cycles
DTLB RQ	ACCESS:   59695605	FORWARD:          0	MERGED:   14558017	TO_CACHE:   45137588

STLB TOTAL     ACCESS:    6179671  HIT:    6124229  MISS:      55442  HIT %:    99.1028  MISS %:   0.897168   MPKI: 0.27721
STLB LOAD TRANSLATION ACCESS:    4258465  HIT:    4203023  MISS:      55442  HIT %:    98.6981  MISS %:    1.30192   MPKI: 0.27721
STLB TRANSLATION FROM L1D PREFETCHER ACCESS:    1921206  HIT:    1921206  MISS:          0  HIT %:        100  MISS %:          0   MPKI: 0
STLB PREFETCH  REQUESTED:          0  ISSUED:          0  USEFUL:          0  USELESS:          0
STLB USEFUL LOAD PREFETCHES:          0 PREFETCH ISSUED TO LOWER LEVEL:          0  ACCURACY: -nan
STLB TIMELY PREFETCHES:          0 LATE PREFETCHES: 0 DROPPED PREFETCHES: 22058620
STLB PREFETCHES SAME FILL-ORIGIN LEVEL: 0 DIFFERENT FILL-ORIGIN LEVEL: 0
STLB AVERAGE MISS LATENCY: 61.6937 cycles
STLB RQ	ACCESS:   34762083	FORWARD:          0	MERGED:    3974827	TO_CACHE:   30787256

STLB Hit, L1D data hit: 0
STLB Hit, L2C data hit: 0
STLB Hit, LLC data hit: 0
STLB Hit, LLC data miss: 0
STLB STLB hints to L2: 0
L1D TOTAL     ACCESS:   59710564  HIT:   53983869  MISS:    5726695  HIT %:    90.4092  MISS %:    9.59076   MPKI: 28.6335
L1D LOAD      ACCESS:   33548894  HIT:   29045561  MISS:    4503333  HIT %:    86.5768  MISS %:    13.4232   MPKI: 22.5167
L1D RFO       ACCESS:   24240414  HIT:   23028959  MISS:    1211455  HIT %:    95.0023  MISS %:    4.99767   MPKI: 6.05727
L1D PREFETCH  ACCESS:    1921256  HIT:    1909349  MISS:      11907  HIT %:    99.3802  MISS %:   0.619751   MPKI: 0.059535
AGUS PREFETCH L1 MISS: 0
L1D PREFETCH  REQUESTED:   64191114  ISSUED:   64168814  USEFUL:          0  USELESS:      11905
L1D USEFUL LOAD PREFETCHES:          0 PREFETCH ISSUED TO LOWER LEVEL:      11907  ACCURACY: 0
L1D TIMELY PREFETCHES:          0 LATE PREFETCHES: 0 DROPPED PREFETCHES: 28582353
L1D PREFETCHES SAME FILL-ORIGIN LEVEL: 11907 DIFFERENT FILL-ORIGIN LEVEL: 0
L1D AVERAGE MISS LATENCY: 18.9265 cycles
L1D RQ	ACCESS:   46054243	FORWARD:          0	MERGED:   12058386	TO_CACHE:   33687496
L1D WQ	ACCESS:   26154246	FORWARD:     308361	MERGED:     146137	TO_CACHE:   26008109
L1D PQ	ACCESS:   33665196	FORWARD:          0	MERGED:    3161578	TO_CACHE:   30503618

L1D UNIQUE REGIONS ACCESSED: 0
L1D REGIONS CONFLICTS: 0
L1D Cross Page Prefetch Requests: 40224320
L1D Same Page Prefetch Requests: 0
L1D ROI Sum of L1D PQ occupancy: 1109838539
L1D PREFETCHES PUSHED FROM L2C: 0
L1I TOTAL     ACCESS:   40215730  HIT:   29068794  MISS:   11146936  HIT %:    72.2821  MISS %:    27.7179   MPKI: 55.7347
L1I LOAD      ACCESS:   40215730  HIT:   29068794  MISS:   11146936  HIT %:    72.2821  MISS %:    27.7179   MPKI: 55.7347
L1I PREFETCH  REQUESTED:          0  ISSUED:          0  USEFUL:          0  USELESS:          0
L1I USEFUL LOAD PREFETCHES:          0 PREFETCH ISSUED TO LOWER LEVEL:          0  ACCURACY: -nan
L1I TIMELY PREFETCHES:          0 LATE PREFETCHES: 0 DROPPED PREFETCHES: 0
L1I PREFETCHES SAME FILL-ORIGIN LEVEL: 0 DIFFERENT FILL-ORIGIN LEVEL: 0
L1I AVERAGE MISS LATENCY: 16.0503 cycles
L1I RQ	ACCESS:   58302049	FORWARD:          0	MERGED:   16450047	TO_CACHE:   41852002

BTB TOTAL     ACCESS:   30554976  HIT:   18202901  MISS:   12352075  HIT %:    59.5743  MISS %:    40.4257   MPKI: 61.7604
BTB BRANCH_DIRECT_JUMP	ACCESS:    2019656  HIT:    1215832  MISS:     803824
BTB BRANCH_INDIRECT	ACCESS:   11895775  HIT:    7117895  MISS:    4777880
BTB BRANCH_CONDITIONAL	ACCESS:    7695510  HIT:    6433858  MISS:    1261652
BTB BRANCH_DIRECT_CALL	ACCESS:    3770965  HIT:    1770003  MISS:    2000962
BTB BRANCH_INDIRECT_CALL	ACCESS:     701087  HIT:     340568  MISS:     360519
BTB BRANCH_RETURN	ACCESS:    4471983  HIT:    1324745  MISS:    3147238
BTB BRANCH_OTHER ACCESS:          0  HIT:          0  MISS:          0

L2C TOTAL     ACCESS:   41374106  HIT:   40055016  MISS:    1319090  HIT %:    96.8118  MISS %:     3.1882   MPKI: 6.59545
L2C LOAD      ACCESS:   15650262  HIT:   14506538  MISS:    1143724  HIT %:     92.692  MISS %:    7.30802   MPKI: 5.71862
L2C DATA LOAD MPKI: 2.11627
L2C INSTRUCTION LOAD MPKI: 3.60234
L2C RFO       ACCESS:    1211455  HIT:    1113956  MISS:      97499  HIT %:    91.9519  MISS %:    8.04809   MPKI: 0.487495
L2C PREFETCH  ACCESS:      11907  HIT:       8775  MISS:       3132  HIT %:    73.6961  MISS %:    26.3039   MPKI: 0.01566
AGUS PREFETCH L1 MISS: 0
L2C DATA PREFETCH MPKI: 0.01566
L2C INSTRUCTION PREFETCH MPKI: 0
L2C WRITEBACK ACCESS:    2296003  HIT:    2263232  MISS:      32771  HIT %:    98.5727  MISS %:    1.42731   MPKI: 0.163855
L2C LOAD TRANSLATION ACCESS:      84425  HIT:      42705  MISS:      41720  HIT %:    50.5834  MISS %:    49.4166   MPKI: 0.2086
L2C TRANSLATION FROM L1D PREFETCHER ACCESS:   22120054  HIT:   22119810  MISS:        244  HIT %:    99.9989  MISS %: 0.00110307   MPKI: 0.00122
L2C PREFETCH  REQUESTED:          0  ISSUED:          0  USEFUL:        244  USELESS:       3133
L2C USEFUL LOAD PREFETCHES:        244 PREFETCH ISSUED TO LOWER LEVEL:       3132  ACCURACY: 7.79055
L2C TIMELY PREFETCHES:        244 LATE PREFETCHES: 0 DROPPED PREFETCHES: 0
L2C PREFETCHES SAME FILL-ORIGIN LEVEL: 0 DIFFERENT FILL-ORIGIN LEVEL: 0
L2C AVERAGE MISS LATENCY: 34.5247 cycles
L2C RQ	ACCESS:   39066205	FORWARD:          0	MERGED:          0	TO_CACHE:   39066198
L2C WQ	ACCESS:    2296003	FORWARD:          7	MERGED:          0	TO_CACHE:    2296003
L2C PQ	ACCESS:      11907	FORWARD:          0	MERGED:          0	TO_CACHE:      11907

L2C Instructions Evicting Data 266831
L2C Translations Evicting Data 27277
L2C Data Evicting Data 252439
L2C Instructions Evicting Instructions 442095
L2C Translations Evicting Instructions 11676
L2C Data Evicting Instructions 244445
L2C Instructions Evicting Translations 11543
L2C Translations Evicting Translations 3011
L2C Data Evicting Translations 27002
L2C Dense regions hint from L2: 0
PSCL5 TOTAL     ACCESS:   21405660  HIT:   21405660  MISS:          0  HIT %:        100  MISS %:          0   MPKI: 0
PSCL5 LOAD TRANSLATION ACCESS:      55442  HIT:      55442  MISS:          0  HIT %:        100  MISS %:          0   MPKI: 0
PSCL5 TRANSLATION FROM L1D PREFETCHER ACCESS:   21350218  HIT:   21350218  MISS:          0  HIT %:        100  MISS %:          0   MPKI: 0
PSCL5 PREFETCH  REQUESTED:          0  ISSUED:          0  USEFUL:          0  USELESS:          0
PSCL5 USEFUL LOAD PREFETCHES:          0 PREFETCH ISSUED TO LOWER LEVEL:          0  ACCURACY: -nan
PSCL5 TIMELY PREFETCHES:          0 LATE PREFETCHES: 0 DROPPED PREFETCHES: 0
PSCL5 PREFETCHES SAME FILL-ORIGIN LEVEL: 0 DIFFERENT FILL-ORIGIN LEVEL: 0

PSCL4 TOTAL     ACCESS:    4399393  HIT:    4398676  MISS:        717  HIT %:    99.9837  MISS %:  0.0162977   MPKI: 0.003585
PSCL4 LOAD TRANSLATION ACCESS:      53025  HIT:      52308  MISS:        717  HIT %:    98.6478  MISS %:    1.35219   MPKI: 0.003585
PSCL4 TRANSLATION FROM L1D PREFETCHER ACCESS:    4346368  HIT:    4346368  MISS:          0  HIT %:        100  MISS %:          0   MPKI: 0
PSCL4 PREFETCH  REQUESTED:          0  ISSUED:          0  USEFUL:          0  USELESS:          0
PSCL4 USEFUL LOAD PREFETCHES:          0 PREFETCH ISSUED TO LOWER LEVEL:          0  ACCURACY: -nan
PSCL4 TIMELY PREFETCHES:          0 LATE PREFETCHES: 0 DROPPED PREFETCHES: 0
PSCL4 PREFETCHES SAME FILL-ORIGIN LEVEL: 0 DIFFERENT FILL-ORIGIN LEVEL: 0

PSCL3 TOTAL     ACCESS:    4401690  HIT:    4400973  MISS:        717  HIT %:    99.9837  MISS %:  0.0162892   MPKI: 0.003585
PSCL3 LOAD TRANSLATION ACCESS:      55322  HIT:      54605  MISS:        717  HIT %:     98.704  MISS %:    1.29605   MPKI: 0.003585
PSCL3 TRANSLATION FROM L1D PREFETCHER ACCESS:    4346368  HIT:    4346368  MISS:          0  HIT %:        100  MISS %:          0   MPKI: 0
PSCL3 PREFETCH  REQUESTED:          0  ISSUED:          0  USEFUL:          0  USELESS:          0
PSCL3 USEFUL LOAD PREFETCHES:          0 PREFETCH ISSUED TO LOWER LEVEL:          0  ACCURACY: -nan
PSCL3 TIMELY PREFETCHES:          0 LATE PREFETCHES: 0 DROPPED PREFETCHES: 0
PSCL3 PREFETCHES SAME FILL-ORIGIN LEVEL: 0 DIFFERENT FILL-ORIGIN LEVEL: 0

PSCL2 TOTAL     ACCESS:      55442  HIT:      27893  MISS:      27549  HIT %:    50.3102  MISS %:    49.6898   MPKI: 0.137745
PSCL2 LOAD TRANSLATION ACCESS:      55442  HIT:      27893  MISS:      27549  HIT %:    50.3102  MISS %:    49.6898   MPKI: 0.137745
PSCL2 PREFETCH  REQUESTED:          0  ISSUED:          0  USEFUL:          0  USELESS:          0
PSCL2 USEFUL LOAD PREFETCHES:          0 PREFETCH ISSUED TO LOWER LEVEL:          0  ACCURACY: -nan
PSCL2 TIMELY PREFETCHES:          0 LATE PREFETCHES: 0 DROPPED PREFETCHES: 0
PSCL2 PREFETCHES SAME FILL-ORIGIN LEVEL: 0 DIFFERENT FILL-ORIGIN LEVEL: 0

LLC TOTAL     ACCESS:    1407152  HIT:    1357359  MISS:      49793  HIT %:    96.4614  MISS %:    3.53857   MPKI: 0.248965
LLC LOAD      ACCESS:    1143724  HIT:    1101910  MISS:      41814  HIT %:     96.344  MISS %:    3.65595   MPKI: 0.20907
LLC RFO       ACCESS:      97499  HIT:      91710  MISS:       5789  HIT %:    94.0625  MISS %:     5.9375   MPKI: 0.028945
LLC PREFETCH  ACCESS:       3132  HIT:       3132  MISS:          0  HIT %:        100  MISS %:          0   MPKI: 0
AGUS PREFETCH L1 MISS: 0
LLC WRITEBACK ACCESS:     120833  HIT:     120794  MISS:         39  HIT %:    99.9677  MISS %:   0.032276   MPKI: 0.000195
LLC LOAD TRANSLATION ACCESS:      41720  HIT:      39569  MISS:       2151  HIT %:    94.8442  MISS %:     5.1558   MPKI: 0.010755
LLC TRANSLATION FROM L1D PREFETCHER ACCESS:        244  HIT:        244  MISS:          0  HIT %:        100  MISS %:          0   MPKI: 0
LLC PREFETCH  REQUESTED:          0  ISSUED:          0  USEFUL:          0  USELESS:          0
LLC USEFUL LOAD PREFETCHES:          0 PREFETCH ISSUED TO LOWER LEVEL:          0  ACCURACY: -nan
LLC TIMELY PREFETCHES:          0 LATE PREFETCHES: 0 DROPPED PREFETCHES: 0
LLC PREFETCHES SAME FILL-ORIGIN LEVEL: 0 DIFFERENT FILL-ORIGIN LEVEL: 0
LLC AVERAGE MISS LATENCY: 139.601 cycles
LLC RQ	ACCESS:    1283188	FORWARD:          0	MERGED:          0	TO_CACHE:    1283188
LLC WQ	ACCESS:     120833	FORWARD:          0	MERGED:          0	TO_CACHE:     120833
LLC PQ	ACCESS:       3132	FORWARD:          0	MERGED:          0	TO_CACHE:       3132

LLC Dense regions hint to LLC: 0

RAW hits: 1403754
Loads Generated: 47457997
Loads sent to L1D: 46054243
Stores Generated: 26154243
Stores sent to L1D: 26154246
Major fault: 0 Minor fault: 4194
Allocated PAGES: 4194
ucb ended
-----------------------------------------------------------------------------------------------------------------------------------------------------------------------------------------------------
Offsets elements: -3627632 11 -25 -1230612 -10739 1143451 -1132712 1465995990172 -1465994857460 1465992253335 -1465993160545 1 -5 -225498 -1465995765724 -4 908272 -977512 977516 1465992253334 -1 2 2604125 -2604124 5 -1465993386053 -1465991131754 -4858418 1465993386051 2604121 -2604123 4 -1465995990172 1465993386049 2604123 -2604119 3 6 -1465993386058 1465993386057 2604109 -1465994759546 -1230626 1465993386065 2604107 -2604109 -1465992155455 -1241353 1241378 -14 -11 -1465994857459 -93853 93851 -907215 -1050 -22727 23777 224444 1465995765728 -907214 -6 -1097 908310 -10 -930979 23775 907214 -908200 986 -3 -23772 -2 1031801 -1031803 1031431 -1007655 7 -23782 945747 -921963 1465993160551 -1465992253347 -907208 889526 1465992271029 -1465992347202 -1038861 -2603904 -1465993386157 70426 -70537 15825 1465993370238 -1465993364497 -21315 21319 48970 968322 3807128 -3807128 -4845989 -1465988529363 1465991133471 -2604108 -1465993386065 111 1465993386157 2603904 21581 48956 -49914 1465993365441 2604108 -2604105 -1465993386067 1465993386068 -1465988529364 1465988529362 -1465993356157 1465995960263 -1465995968600 48975 127501 1503579 -1701628 1465993386268 21454 48972 -48968 48969 -70538 -2604106 -1465991684438 2717447 1465988966993 -1465993370242 1685803 -1465995990061 -48970 -5745 -15825 1465993386067 -1465991684439 36 1465991684404 2604104 -1465995792124 1465993188022 -1465991684442 -1701629 1465995990061 -1465995919635 -48972 -5740 1701629 1465991684439 -1465993315530 -48969 1465993364498 2604105 -1465995834948 42824 -198048 -1465995832176 41712 -199710 -1465993396993 10836 -1465993315731 70540 1465995919632 -1465995790462 4403544 -4443222 -160032 160032 1465995830140 -1465994840207 -1149964 -1465994951311 -1038610 4856450 -10712 -4845990 20512 1465995969549 -48956 15389 -15401 -70539 1465993386062 -2604104 -1465992347207 1465993386063 -1465993188020 4405206 -4603254 1701628 -1712357 1465996000901 -1465991571097 184179 -2901589 -1712393 10729 4603255 1465991386917 -1465994288508 -469030 -1232634 -1465994757534 -1232638 1232634 1465992153425 2604114 -1465995764674 -1055 1050 1465992153424 -1465993230854 1465993230851 -1465993386056 155205 1465995834967 -2604116 -1465993230851 -221567 1465993452424 -1465993386062 -2604120 -1465992153414 1465992153421 -1465992153425 1465992153422 -221545 1465993452402 1465993386054 2604120 -2604121 -1465992153413 1465992153418 -1465993160549 -225508 1465993386058 -2604117 -2604113 -1465992153424 -1214486 1214485 -1007137 -24633 25683 -1232639 225498 1465995764663 -1465995765760 1091 -988 -24694 24585 1008232 -1032819 1032809 -1007131 1007142 -1008234 1008224 -1007126 812780 -812776 -1092 1101 -1103 254575 -253474 -1061 1055 -25680 24584 -24586 1032823 -1033990 26856 -25693 25695 -12 -1476 1481 -199823 1232643 -1032828 1465995790357 -1465995790354 838961 193858 -193857 -839902 1033759 1465992153420 -1465993187179 -43667 43667 -626 626 1465993187180 -1465993186240 1465993186240 -1465992347280 -839900 -265424 66546 225503 1465995764669 -25675 24589 1097 -1086 -24585 24690 -105 -27258 1574 838448 -838452 -266369 66548 -1465995790349 -1572 1570 25689 -27260 27260 -225511 1465993386035 2604136 -1465995764663 1465993160532 -1465993186220 1465993186220 -1465993187790 27247 813320 -813310 224407 1465993161648 -18 2604135 -2604134 -1465993187384 1166 -1567 1465993187806 -1465992347239 193819 -193818 193818 2296957 1465989856463 -1465993230846 3374383 10 -2490785 2490791 -2296973 18 -3316695 1019720 -1019688 1465993173108 -3596140 3596159 -1687138 -609838 981600 9 -981609 20 -11120 -1698061 -587796 -1465989055107 -4397496 221757 1815583 1558800 -2296977 2766540 1465989386880 -1465993452603 4669449 -4891206 3596140 21 -2296978 2168019 1465989985401 4669448 -4669448 -221757 4485620 -4485620 4263863 -889480 1465989856464 -1465989856442 -3529615 198251 27252 -1465991165513 -4824659 813268 3785880 -4624836 -199825 -66548 1465996056720 24696 813756 -812764 4599149 -4599155 -25687 -199821 1465993386037 -1465993186213 26156 4615523 1465991150241 -1465995764669 1465993160555 -1465993186242 839002 3785840 1465988561399 -1465993187405 1171 25680 8 -25694 1032820 -1465988546128 -4640109 1032821 -1032823 915213 3709624 15272 -3138261 -1701669 155264 4675516 -4605277 -1465991159391 -4630958 1032814 3598144 -4630966 4630965 -4675569 1465993230843 -1465992153417 3610068 -4687494 4687494 1465988543331 -1465988543331 -4687512 1077426 3610086 4696890 -4696890 22 1465988533931 -1465988533953 -3619464 -1077426 4696912 -4696912 1465988533928 4696915 -4696915 3619489 -1465993230843 4694275 -4694275 -8 8744 -4703027 4694283 -4694283 4703027 1465988527816 -1465988527816 -3625601 4700895 -4700895 1465988529948 4690852 -4690852 10641 1465988529350 4701493 -3624067 4703224 -4703224 -2471 -4700753 4700753 1465988530090 -1465988530090 2458 -3625785 3623327 4703211 -4703211 -2459 1465988530091 4700752 -4700752 1465988527633 4703210 -4703210 -1465988527633 -3625784 3623325 -4700751 4700751 -4703209 -1465988530092 4703209 -3625782 -4703208 4703208 1465988527635 -1465988527635 -4858419 1465993386055 2604117 -1465993386052 1465993386059 2604113 -1465992153416 3592019 33761 -4632913 4633831 -3626699 4824658 1465991165514 -1465991150242 -3607291 3607291 18489 919 -4859338 -2604114 -1465993386060 1465993386061 -1465992153423 1465994757534 -1465994757538 -1465993160561 1232638 1465992153428 2604110 -1465993230853 1546459 -1701664 -1465995830140 989932 1465992236104 -1465993396784 4870054 -3157674 1465991684403 -4419075 -1503616 -2604107 -1465993386066 1465993386069 2604102 -1465995792125 1465993188024 -1465993188024 1465993188023 -1465993386070 1465993386071 2604101 -1465995829215 1465993225113 -1465993396608 1241007 471156 1465988967001 -1465991684412 -471192 1465992155601 -1465991684445 -2717410 1465991684406 -1465991684443 1465991684443 -1465993386071 1465993386075 2604100 -2604099 -1465993386076 1465993386076 2604097 -2604097 -1465988526742 1465988526743 -1465988526743 -4859100 4859100 -3304052 -1555303 -1465994434871 1465991830774 -1465993367868 -725 180466 1032525 3188601 -3188602 -1230225 157756 1465993228219 -1465993228219 1465993228073 -1465993228073 44909 -44909 4261071 -4419074 20623 21470 14555 -36025 -1465993385826 21321 1465995919634 -1465995832168 -1465993365453 -20623 -1465995968591 -21470 36136 1465995954036 -1465995968603 89493 1541623 -1683723 -17931 244 156641 1465995833284 -2603950 -1465993230139 -155837 1465993385881 -1465993230042 1465993230042 -1465993170734 -215153 155846 59298 1465993170744 -1465993170744 1465993170688 -1465993386069 245 155838 59301 -59301 -156083 2604096 -2604098 -1465993386073 160031 1465995830141 -1465994288517 -1541624 -1544766 -139214 138393 986711 -981286 17 -1478 -142110 -28886 1157560 -1128666 -17929 -1465994288518 -1701654 -1465994759176 -1230996 -9 -1465993386075 -2604093 -1465992155607 3626230 1465988529374 -1465991830775 -1537094 1465993188131 -1465993386079 -1465995830141 -143155 1129710 -1146586 -1465994759700 -1032426 -209291 1465993397315 -1465993230863 1465995834965 -2604101 -1465993370244 1465993370245 -209290 1465993397313 -1465993230862 42839 -1465993230864 209293 1465993188026 1465993230864 -1465993188025 -42839 -166451 209290 1465993188025 -1465993397315 166451 1465993230869 48974 -54714 5744 -21569 -1465993315529 1465993315528 -1465995792123 4658067 -4856116 -1465995989934 197811 1465988529952 -1465993386068 -2604102 -1465993385825 1465993385831 -7 -1465995969549 1465993365645 -21581 1465993386070 -2604103 -1465993350069 1465993350070 1465993386072 1465993315537 -1465988529960 2604103 -1465988529953 -4698117 -2932031543253 4398024771323 -1465993385829 1090602 3765274 -3765274 -1090843 -1465993385816 4855865 1465988529960 -1465992239485 1465992239489 -1465993364687 -1465995953182 1465993349081 -1465993386072 -1465993364504 1465995968603 -2604100 -1465993315533 1465993315542 -1465992239490 1465992239583 -93 -1465992155606 3625641 -4856115 8328 -29909 -1465993364503 1465995968601 -1465995919629 1159930 -1230474 -20512 70537 1159936 -1193483 1465995953182 21458 1465995919633 958 -111 -1465993349278 1193483 1465994759699 -1159935 127507 -209292 4867948 -4856704 1465993364687 -1465993386268 36991 33546 1465995919635 1465993315534 198048 1465995792124 -1465991386918 -4613984 1243365 -193775 193773 -25683 -199815 224448 -1007144 -25679 4624831 -1091 -24587 4640105 -4614420 -25688 1465993186248 -1465992153433 -1008118 813758 76756 -915213 839040 -813353 70539 -1465995989922 1038611 3817843 -4856701 1465993386073 -194 -1465993386074 -1465993188028 -197935 1465993315731 -1465995953676 -412 -14514 -1701665 -1465994288544 -1670800 -30829 21459 -48959 48960 -49918 35889 -14431 246 20377 1465993365451 193 1465995968591 -1465995954036 -36136 946 -1465995919634 -48957 30718 1465995959343 -1208902 -21533 70503 4786162 -4786161 1159941 -1230484 -26262 4681 29908 1465995960264 -1465995990135 21533 4835132 1484761 -1555300 -1465988967124 -4398521 -70426 -1465994434873 -1555299 -14555 4835134 -4786165 1465993315730 -1465993349277 -15422 1484760 -1465993364494 1465993364495 30432 1465995959629 21570 15421 33551 1465995919630 70428 12 29797 -2604067 -27 -1465993386078 48971 -53666 1465993369227 2604069 986555 1465992239517 -1465992239516 1465992239516 -1465993386103 -159793 1146349 1465994843585 -1683672 1128605 1465992239515 -1465993229214 -156888 -1465995989454 154476 -154908 -10772 1465995942280 58386 -58033 53072 -2599137 2604098 30 -1465992239515 -1316732 170145 -2604096 155842 1465993229980 -1465993229963 1465993229964 149 -149 -4398024771259 4398024771259 -1465993385833 1465993385836 -1465992241417 23 1465992241390 -1465993226041 1541624 -556970 1465992241378 -1465992241386 -1261512 1465993502898 -1465993385821 155841 -156088 1465993386074 32 28 -1465993386104 1155162 1465994835010 -1465996001457 1166447 -1166448 1166492 1465992230867 -1465992230906 -1138454 -27995 1166449 -1154915 159344 1465993226631 -1465992231055 -1154919 159343 1465993226481 -1465993369365 1138454 1465992230908 -1465992230907 1465992230890 -1465992230905 1465992230905 -1465992230904 1465992230904 -1465992230903 1465992230903 -1465992230901 1465992230901 -1465992230900 1465992230900 -1465992230899 1465992230899 -1465992230897 1465992230897 -1465992230896 1465992230896 -1465992230894 1465992230894 -1465992230893 1465992230893 -1465992230892 1465992230892 -1465992230889 -1155183 2604099 -2604069 -1465992230941 -1166447 11285 -1465994835010 44 -1166492 1465993397359 -1465992230908 -1138457 -1166449 11534 -1465992231056 -1154918 1465993226480 1465992230911 19 1465992230889 1465992230907 1465992230891 -1465992230888 -2604068 -1465992230942 1166448 -1155162 16708 -27993 1465996001457 -1465994835008 1465993397358 -1465993369364 1138456 -1154917 1154915 170878 -1465993226631 995573 -1154916 1465993226479 1138499 -43 -1138294 -16591 17865 1465993367926 1465992230910 -1465992230909 1465992230888 -1465992230902 1465992230902 -1465992230898 1465992230898 -1465992230895 1465992230895 -1465992230891 -1465992230887 31 -30 -1465992230910 -1138455 1138455 1465993397509 995572 -1465992230911 -1465993369395 143324 995130 -1166446 29 -1465993226071 -1160681 1160681 1149964 1465994840208 -1465994951312 -813359 -225501 -1465995766151 427 161219 1465995828953 -1465995765728 -224444 -1465995996146 231472 -1096 124 972 1099 1096 1465993160561 -1465995971965 -51 -18156 -1465993188124 1465995792223 -1465993367915 1465993367919 1465993386105 -28 2604095 -2604094 -1465993385837 1465993385933 -49 49 56 -64 -1465988526018 1465988526017 -1465992239529 -1465995989886 1465995931508 345 58033 -4961 -2599107 2604067 -1465992239518 -986563 1128604 -989698 989698 170392 1465993230133 -118 -1465993226073 -1545566 1465993230008 -1465993385856 1465993230017 -1465992239513 -1465992239520 -986556 -1129715 1129713 -1129712 1129712 -1465993386105 1465993386127 40 2604005 64 -1465993226139 -1693 4835 1465993226136 -1465993397520 216 171169 -1465996001455 1166445 -1166493 1166470 -995153 -1684446 1213787 -1213028 138921 -167785 1465993397059 -1465993225165 1465993225268 -1465995968605 -32405 10838 48977 1084661 -1155210 -1465995974347 1045 -16618 -252 -5744 -1465991134058 -4856114 21455 -54718 21571 1465993364589 -1465993315617 1465993315618 2604012 -1465994759194 1465992155183 -1465993386162 1465993386161 -1465988530045 -1465994834918 -1139429 54712 -48971 -21566 -1465993315619 1465993364593 2604008 -1465994834917 75707 -75708 -1465993386165 -40628 1465995919628 -1465993315625 1194005 -1209426 995178 -1166497 1166541 -23 -1166518 1166540 3700859 29909 -1465995968601 1465993315620 -1465993386164 1465993386165 -1465993364584 -21329 1465995989920 1465995908316 -1465995941863 1465993349175 -1465992230931 -1133665 -1465995960411 1465993356406 -1465993226134 -138461 138460 -89483 1079415 -1465994840208 1465992236195 -1465992236195 -1149965 1465992236201 2604007 -1038860 24322 -24323 -813358 -2604014 -1465993160660 254573 1465992907180 -1465993160662 1465993160665 -1465993160667 1465993386158 -1465993161714 -1465995764664 1465993160656 -1465993160655 -1465993160654 1465993160655 -1465992322978 1465992322980 -1465992347304 24324 -24324 -1038857 1062936 1465992323039 -59 -1465992322980 1063181 -1062936 1062935 -1063182 1465995931853 -345 53417 4961 -4962 -2599050 2604010 -2604010 -1465993205220 -19983 1465993225206 -1465993225206 -171492 1465993396697 -1465992322979 -1063183 -2604007 -1465993356414 1465993356413 -138462 -70540 70541 1465995919631 -4907 1191 3715 986568 -990285 990282 -990284 3718 -3717 3719 -3718 990283 3720 -3719 990285 3721 -3720 990276 1465993386163 -1465993350079 1465993350078 -1465995968602 1125023 -1076050 1076049 1465992239577 -1465993226132 -3722 -156310 -2604008 -160031 29634 -29745 -2604006 -1465993386166 1465993386167 -1465993364596 1465995919626 -2604005 -1465993365544 36010 1465995954162 -2604000 -1465993364602 1465993315630 -1465993367698 4584781 -4603248 4670194 -4651755 141595 -160038 160038 -163521 163523 1465995830134 -1465995829212 -922 4512080 -4682666 10548 -1465995830134 -163520 1465993389649 4672115 -4672118 -54712 1465993315623 -1465993364594 -1465991363370 -4626802 -1465995990169 1465988714047 4626802 1465988759363 -1465993226127 1465993226128 -1465988759363 1465991363369 4672118 1465988714048 1465993386166 -1465988714048 1465991318054 -1465993386170 160960 1465995829212 -1465996000720 -2604002 160961 1465995829211 -1465988759364 -10549 10835 1465995989886 -53417 4962 -2599047 -2604009 45316 -4512077 4466761 -4626803 35 1465995990137 -1465994844696 3481328 1465988759370 -1465988526082 -4842116 4608828 160039 1465995830133 -1465993386172 4860090 1465991130082 -2604016 -1465992240750 3714676 -3714674 -1155933 28991 -18192 199875 1465995735649 -2549583 288223780712126814 -10347051 -2200619273871 2200619273871 -144503 144503 184428 -235739 235739 -619763 619766 26989 -12898501 12898499 -2200619306233 2200619251950 -12658 -2200619132568 2200619145228 -12660 39945 10306824 -10334107 -2200619138862 2200619138875 -16 -24 27268 -27281 27293 -27290 3473 -3478 -2200619145292 2200619145287 -2200619252163 2200618987806 291625 -27279 14 27271 -27285 27289 -2200619145225 2200619145250 16 -45136 45136 -2200619145224 -23743 -235 2200614636860 4559627 10308999 -10309000 23986 -56 -2200619177964 2200614594396 14868639 -14868639 4559637 -45839 45838 -45966 45969 -3744319928 3744343913 -3744343916 3739760287 4559640 -3744319927 3744319927 -45814 18531 2200619196497 -23986 -27280 51265 -51248 51248 -51268 -2200619169803 2200619221049 -2200619145245 2200619145241 -27265 -2200619168987 -811 2200619197070 23978 -23983 23982 -51265 27286 -288225246690345847 288225246690345829 23984 -51245 51245 -23976 27285 51247 -2200619220239 2200619168972 -2200619168973 2200619168937 27276 -27278 -51250 -51247 51249 51266 -2200619220238 2200619168970 27278 23987 -2200619218386 2200619194397 -2200619197057 2200619169796 51250 -51246 27256 23991 -69800 69805 -23992 23992 -69801 69800 -23991 23993 -51253 -19 51270 -23994 23995 -51269 51268 -51270 51271 51274 -51255 51267 -22 -2200619168969 13 -27257 -2200619168984 2200619168988 -2200619252014 2200619251998 51264 -23995 -51257 51258 -51252 -2200619169801 2200619169792 -2200619168947 2200619168951 -2200619169794 2200619197057 -27264 51257 -51254 51255 -51274 -45141 96415 10336968 -10285712 -51260 -51263 -2200619251998 2200619252002 3491 -2200619148762 2200619148763 -267826 291609 -72403 96400 -47781 -3483 -2200619252155 2200619255638 -3487 -264343 315606 -96407 96406 -69803 18552 -69827 45829 -72379 96376 -47780 -131448 179227 -51273 -69828 45828 -155231 179225 -23998 -45831 69827 -2200619220387 162 2200619220224 -24004 -2200619196389 2200619196392 -276709 300709 -2200619220372 2200619150544 -26533 26533 -2200619233499 2200619279322 24004 -24000 24001 -2200619220225 45822 -2200619196369 2200619220372 -2200619196394 2200619196394 -2200619196390 -657 2200619197051 -223782 223782 -25312 25312 25308 -25307 -2200619171059 2200619196371 -2200619196372 2200619171061 49311 -63934 14620 -20514 20517 -2200619254014 2200619233497 -20517 -49311 20515 25306 -154588 154588 -25306 -25305 45823 -45823 -72353 72354 -47049 47045 -14620 10346776 -2200629472974 2200619166124 -25303 -2200619171740 2200619221051 -178593 154585 -25310 25310 -155227 105530 49698 23997 -23997 -26580 72410 -45830 5894 1922 -10358658 4066 -6770 -239024 -2200618855563 2200619094592 52591 -52591 76590 -2200619220834 2200619144244 -2200619143627 2128153251156 72465892472 10361354 -10348698 2200619166132 -49697 49697 23996 -47779 47779 -96414 -96377 48596 10333495 -10285715 -129282 -630 179221 72360 -155223 155223 -3495 3483 47780 -315604 -2200618987814 2200619207013 48625 2200619148764 -2200619255638 291614 24000 -69802 69802 -267834 315614 63934 -2200619148684 2200619126636 -725281 725279 -2200619221049 2200619169781 -674009 725280 -274610 274611 -24001 -39932 -245810 315612 -47778 10282842 -10598450 291604 -291610 10598456 -10504416 10506327 -10373953 89198 -245815 315618 -315615 315615 -2200619310670 2200619310669 24005 -69804 69803 -24003 -291615 94047 -10284758 -2200619220472 2200619220474 -315619 315619 -315614 -2200618995055 27264 -245783 245783 -291600 315605 -178949 10461792 -2200629503697 2200619220853 10284871 -10600490 10600490 -2200629505334 2200629503312 2200629475001 -10308876 10309713 -10309712 10309711 -197566 197569 10308760 -10600374 251685 39932 2200629472974 2200629473275 -10347077 -11565544 -2200617938350 30920 2200619126198 -10346776 10347079 -2200629504297 100 614 2200629505302 -10308869 10308874 -2200629505302 -10308877 10308877 -10284869 -315618 10600482 -10308874 24010 -2200619220475 2200619220473 315620 -315608 315610 241 2200619196223 -2200619220232 2200619220233 -315605 219190 10285713 -10285714 69828 -26588 26612 10285718 -10285717 -96375 -82854 179229 -109404 155216 24011 72343 10309737 -10309737 -155214 179228 -96405 96405 -69826 22047 47781 -245778 219228 22678 49686 -72394 72393 24015 -24015 -45813 10348698 10356736 -10359440 6770 -6754 239025 -2200619094588 2200619094589 52579 -52579 -2200619144239 2200619220834 -76595 -72465892466 72465892466 -2200619143623 2200629504982 39917 -49684 -105520 179219 179217 72345 -155202 -2200619101472 -48975 -82959 2200619303234 219189 96417 -10355540 69825 -47782 -22046 22048 245778 -2200619150415 -2200619147291 3584452 2200615575462 -12623 12618 -58430 58441 11392 266292 49314 -26518 96345 -11393 11393 -11396 10294240 -10294238 11396 -11379 -58425 69804 -11378 -17 -58432 -2200619150411 2200619208862 11377 58434 23760 12643 -11395 -167194 154567 -154567 153576 987 -40872 -26 15 40886 -40896 -2200619155931 -13 2200629503697 2200629504003 -3072 1652 -10346670 -15 10346685 -2200629502605 2448 2200619194364 10305790 -10305789 -2200619196808 2200619155925 10346673 -10346684 -2200619270314 2200619270328 17049 10329633 -10346734 17102 -17102 40942 -40940 40915 -40921 39696 1226 -2200619194312 2200619194311 -40889 -10471 10340101 -10346683 17050 -17050 -2200619153867 2200619153873 10348064 -10331016 -17049 -17048 17051 -17024 10346619 37 -10346686 17021 -2200619172985 2200619196826 10305568 -10329409 -2200619153884 2200619170933 23841 -23841 -24023 10370671 -10370668 10370701 -10370701 10370670 -10370671 41072 -41072 41073 -41074 -1240151 1240151 33 -10370704 -10370672 64910 -64912 -10370670 10370673 -10370674 10370669 -10305758 10305758 -10370669 10370704 -10305792 -4541068 4500172 10346684 -2200619270313 2200619270261 10346735 -2200629500565 2200619153832 17101 -17104 52 -52 17052 -40942 -2200619153883 2200619194775 -10346735 40947 -40894 10346686 -2200629616999 2200619311208 10305788 -35 -10346625 40873 -154566 154568 12639 -2200619209658 2200619173270 2200619292038 -2200619209473 2200629501191 -10291718 -12640 10304359 12640 10291718 2506 2200619196833 10308857 -2200629505689 3072 -2200629504460 2200629504460 -10294790 10307430 10294790 -10307428 10307428 -10307429 12623 -12622 -72398 10382129 -10309729 10308875 -2200619197044 2200619197047 10308869 10308752 -10308754 -39927 10348786 -10308857 10306847 39929 -39929 39933 23988 -51241 -2200619169792 2200619169791 27266 -27282 -96410 72423 -72465917842 72465917842 27261 -2200619168994 -2200619169791 27267 -2200619168989 2200619168989 27275 -12871500 12871500 -39944 12660 -27284 -2200619145226 2200619145231 27282 2200619166142 -12871509 12898498 -26990 -39950 39959 -288223780701819721 -63 -1465993185998 1465993185998 -1465993386126 1465993386129 -1465988526074 -4842117 1465993368190 1465988526073 -1465993386163 1465993386164 -4637351 4637351 -4626799 -1465993349623 -36542 -1465993364598 1465993315629 -4860090 -1465995990060 21469 36887 -15417 7424 8579 56661 27126 20389 -112755 8578 104177 -104178 -37452 94113 -65240 83788 -99774 120160 -104177 1465993348602 -1465993386054 37453 104176 -141741 -1465993364605 1465993364604 -1465993291940 1465995895946 -2604003 -1465988782917 -4603252 -1465995952994 -37067 36496 4633702 1465991319974 -1465995990168 21566 -21570 89498 -141597 1465995971729 -1465995993655 4675601 -4511158 -171508 170586 -4672115 -1465995993654 1465993389750 15714 1465995968607 -1465995919632 1465993315625 4626799 -4512080 1465993226127 -1465988714046 1465995990169 -1465993386167 -10548 1465993396718 -1465993225209 4626516 1465991305337 -1465995995760 1465995995759 45315 -160041 -3481326 1465994844698 1145414 1465994844756 -1465996000689 181683 -199875 1465995935524 -78 288223780712126892 -51310 -384024 646755 -26992 26992 -26994 -12871507 12871510 2200606407734 12844216 2200619145229 -12661 -10306831 -2200619166144 2200619138856 -20 27290 -39948 12661 -27267 2200619196253 -27271 27283 -235507 235508 -12659 -27283 27287 -39945 26 10346750 -2200619156921 2200629505689 -2200629505670 2200629505682 -10308841 10307402 1393 -10348769 -2200619156906 2200629505675 -2200629503229 2200619194395 10308831 -10308831 2200619156913 -2200619271302 2200619271304 -201568 10550337 -10348766 -201571 201570 51 -55 39930 -39936 39913 -2200619194342 2200619154410 -8070 -193497 -2200618953285 2200629503624 -1687 -10347076 -201572 -201573 241503 -241504 -201570 201571 -201569 201596 10348703 -10348733 -29 -2200618955353 2200619196857 10348541 -10550113 -211489 10560219 -10560224 10560253 -10560253 10560222 -10560223 9920 -9920 9921 -9922 -970889 11531112 -11531113 11531115 -10560256 10560223 251421 -251423 -10560222 10560225 -10560226 10560221 10308799 -10560221 251423 -39924 10348734 -2200629620035 2200629620035 -10348734 10348735 10560226 251426 10308797 
Potential of Offsets elements: 28.5291 70.5291 169.529 28.5291 28.5291 28.5291 28.5291 1617.09 28.5291 28.5291 28.5291 1464.53 656.529 121.529 73.5291 922.529 28.5291 28.5291 28.5291 28.5291 1664.53 1554.53 28.5291 28.5291 574.529 28.5291 28.5291 28.5291 28.5291 28.5291 28.5291 352.529 2115.1 28.5291 28.5291 28.5291 1360.53 332.529 44.5291 28.5291 28.5291 28.5291 28.5291 28.5291 28.5291 28.5291 28.5291 28.5291 28.5291 114.529 215.529 28.5291 28.5291 28.5291 28.5291 28.5291 28.5291 28.5291 28.5291 28.5291 28.5291 327.529 28.5291 28.5291 158.529 28.5291 28.5291 169.529 32.5291 36.5291 590.529 28.5291 513.529 28.5291 28.5291 28.5291 28.5291 534.529 28.5291 28.5291 28.5291 28.5291 28.5291 28.5291 28.5291 28.5291 28.5291 28.5291 28.5291 28.5291 28.5291 28.5291 28.5291 28.5291 28.5291 28.5291 28.5291 45.5291 28.5291 28.5291 28.5291 88.5291 30.5291 61.5291 66.5291 126.529 112.529 528.529 84.5291 388.529 28.5291 28.5291 28.5291 28.5291 28.5291 28.5291 28.5291 28.5291 28.5291 28.5291 28.5291 28.5291 28.5291 28.5291 28.5291 28.5291 28.5291 50.5291 28.5291 28.5291 28.5291 28.5291 28.5291 28.5291 28.5291 28.5291 83.5291 28.5291 899.529 58.5291 28.5291 65.5291 273.529 32.5291 45.5291 28.5291 28.5291 28.5291 28.5291 28.5291 28.5291 28.5291 28.5291 28.5291 64.5291 28.5291 28.5291 28.5291 28.5291 28.5291 28.5291 28.5291 28.5291 28.5291 28.5291 28.5291 28.5291 28.5291 28.5291 28.5291 28.5291 56.5291 28.5291 28.5291 28.5291 28.5291 86.5291 28.5291 81.5291 28.5291 233.529 28.5291 30.5291 28.5291 28.5291 28.5291 28.5291 40.5291 28.5291 28.5291 28.5291 28.5291 28.5291 28.5291 28.5291 28.5291 28.5291 28.5291 28.5291 28.5291 28.5291 28.5291 28.5291 28.5291 28.5291 28.5291 28.5291 28.5291 28.5291 28.5291 28.5291 28.5291 28.5291 28.5291 28.5291 28.5291 764.529 58.5291 80.5291 40.5291 28.5291 28.5291 43.5291 28.5291 28.5291 28.5291 28.5291 28.5291 28.5291 28.5291 28.5291 28.5291 28.5291 28.5291 28.5291 28.5291 28.5291 28.5291 28.5291 28.5291 28.5291 28.5291 28.5291 28.5291 28.5291 28.5291 28.5291 28.5291 28.5291 28.5291 28.5291 28.5291 28.5291 28.5291 523.529 479.529 28.5291 30.5291 28.5291 28.5291 28.5291 28.5291 28.5291 28.5291 28.5291 28.5291 28.5291 28.5291 28.5291 28.5291 28.5291 28.5291 28.5291 51.5291 30.5291 28.5291 28.5291 67.5291 28.5291 28.5291 28.5291 28.5291 28.5291 28.5291 28.5291 28.5291 98.5291 28.5291 28.5291 28.5291 28.5291 28.5291 28.5291 28.5291 28.5291 66.5291 28.5291 28.5291 28.5291 28.5291 28.5291 28.5291 28.5291 28.5291 28.5291 28.5291 28.5291 28.5291 28.5291 28.5291 28.5291 28.5291 535.529 28.5291 31.5291 28.5291 28.5291 28.5291 28.5291 28.5291 40.5291 28.5291 28.5291 28.5291 28.5291 28.5291 28.5291 28.5291 28.5291 28.5291 28.5291 28.5291 46.5291 72.5291 28.5291 28.5291 28.5291 28.5291 28.5291 28.5291 28.5291 28.5291 28.5291 28.5291 28.5291 28.5291 66.5291 28.5291 28.5291 29.5291 31.5291 28.5291 28.5291 28.5291 28.5291 28.5291 28.5291 28.5291 28.5291 28.5291 28.5291 252.529 28.5291 28.5291 28.5291 216.529 28.5291 28.5291 28.5291 28.5291 28.5291 28.5291 28.5291 28.5291 28.5291 333.529 28.5291 142.529 28.5291 28.5291 28.5291 28.5291 28.5291 28.5291 28.5291 28.5291 28.5291 28.5291 50.5291 28.5291 28.5291 28.5291 28.5291 43.5291 28.5291 28.5291 28.5291 28.5291 28.5291 28.5291 28.5291 28.5291 28.5291 28.5291 28.5291 28.5291 61.5291 28.5291 28.5291 28.5291 28.5291 28.5291 28.5291 28.5291 28.5291 28.5291 28.5291 28.5291 28.5291 28.5291 28.5291 28.5291 28.5291 28.5291 28.5291 28.5291 28.5291 42.5291 28.5291 102.529 28.5291 28.5291 28.5291 28.5291 28.5291 28.5291 28.5291 28.5291 410.529 28.5291 28.5291 28.5291 28.5291 28.5291 45.5291 33.5291 28.5291 28.5291 28.5291 28.5291 28.5291 28.5291 28.5291 28.5291 28.5291 28.5291 28.5291 28.5291 28.5291 28.5291 28.5291 28.5291 28.5291 28.5291 28.5291 28.5291 28.5291 28.5291 28.5291 28.5291 28.5291 28.5291 28.5291 28.5291 28.5291 28.5291 28.5291 28.5291 28.5291 28.5291 28.5291 28.5291 28.5291 327.529 28.5291 28.5291 121.529 28.5291 28.5291 28.5291 28.5291 28.5291 28.5291 28.5291 28.5291 28.5291 28.5291 28.5291 28.5291 28.5291 28.5291 28.5291 28.5291 28.5291 28.5291 28.5291 28.5291 28.5291 28.5291 28.5291 28.5291 29.5291 28.5291 28.5291 28.5291 28.5291 28.5291 28.5291 28.5291 28.5291 28.5291 28.5291 28.5291 28.5291 28.5291 28.5291 28.5291 28.5291 28.5291 28.5291 28.5291 28.5291 28.5291 28.5291 28.5291 28.5291 28.5291 28.5291 28.5291 28.5291 28.5291 28.5291 28.5291 28.5291 28.5291 28.5291 28.5291 28.5291 28.5291 28.5291 28.5291 28.5291 28.5291 28.5291 28.5291 28.5291 224.529 60.5291 50.5291 28.5291 28.5291 28.5291 28.5291 28.5291 28.5291 28.5291 28.5291 64.5291 28.5291 28.5291 28.5291 28.5291 28.5291 28.5291 28.5291 28.5291 28.5291 28.5291 28.5291 28.5291 28.5291 28.5291 28.5291 28.5291 28.5291 28.5291 48.5291 493.529 686.529 154.529 28.5291 38.5291 28.5291 28.5291 48.5291 40.5291 28.5291 28.5291 28.5291 28.5291 28.5291 28.5291 28.5291 28.5291 28.5291 28.5291 28.5291 28.5291 28.5291 28.5291 28.5291 28.5291 28.5291 28.5291 28.5291 28.5291 28.5291 28.5291 28.5291 28.5291 28.5291 28.5291 28.5291 28.5291 28.5291 28.5291 28.5291 49.5291 28.5291 28.5291 29.5291 50.5291 28.5291 28.5291 28.5291 28.5291 28.5291 37.5291 28.5291 28.5291 28.5291 36.5291 28.5291 28.5291 28.5291 280.529 33.5291 64.5291 28.5291 28.5291 168.529 28.5291 28.5291 28.5291 28.5291 28.5291 28.5291 28.5291 28.5291 28.5291 28.5291 28.5291 28.5291 124.529 28.5291 28.5291 28.5291 28.5291 28.5291 42.5291 28.5291 110.529 28.5291 28.5291 28.5291 28.5291 28.5291 28.5291 28.5291 28.5291 28.5291 28.5291 28.5291 28.5291 34.5291 28.5291 28.5291 28.5291 29.5291 322.529 28.5291 28.5291 28.5291 28.5291 28.5291 28.5291 28.5291 28.5291 28.5291 28.5291 466.529 35.5291 28.5291 28.5291 28.5291 28.5291 28.5291 28.5291 28.5291 230.529 28.5291 28.5291 28.5291 28.5291 28.5291 28.5291 28.5291 28.5291 28.5291 28.5291 496.529 34.5291 36.5291 118.529 28.5291 34.5291 28.5291 109.529 28.5291 28.5291 28.5291 28.5291 28.5291 28.5291 28.5291 28.5291 28.5291 28.5291 28.5291 28.5291 28.5291 31.5291 122.529 28.5291 28.5291 28.5291 28.5291 28.5291 238.529 28.5291 28.5291 28.5291 28.5291 28.5291 28.5291 236.529 388.529 28.5291 166.529 28.5291 28.5291 28.5291 28.5291 28.5291 28.5291 28.5291 28.5291 28.5291 28.5291 28.5291 28.5291 28.5291 28.5291 28.5291 28.5291 28.5291 45.5291 28.5291 36.5291 28.5291 28.5291 28.5291 28.5291 28.5291 322.529 142.529 102.529 28.5291 28.5291 28.5291 28.5291 28.5291 28.5291 28.5291 28.5291 28.5291 28.5291 28.5291 28.5291 82.5291 28.5291 28.5291 28.5291 586.529 28.5291 28.5291 28.5291 28.5291 35.5291 28.5291 28.5291 30.5291 28.5291 28.5291 28.5291 28.5291 48.5291 28.5291 178.529 28.5291 42.5291 76.5291 79.5291 28.5291 652.529 28.5291 28.5291 28.5291 28.5291 28.5291 28.5291 28.5291 28.5291 28.5291 28.5291 28.5291 28.5291 28.5291 28.5291 113.529 28.5291 29.5291 28.5291 28.5291 28.5291 28.5291 28.5291 28.5291 28.5291 28.5291 28.5291 28.5291 73.5291 28.5291 28.5291 28.5291 28.5291 28.5291 31.5291 412.529 28.5291 28.5291 28.5291 28.5291 28.5291 28.5291 28.5291 28.5291 28.5291 28.5291 28.5291 28.5291 28.5291 28.5291 28.5291 28.5291 28.5291 58.5291 28.5291 56.5291 28.5291 28.5291 28.5291 30.5291 28.5291 28.5291 28.5291 101.529 30.5291 28.5291 28.5291 28.5291 31.5291 28.5291 28.5291 28.5291 78.5291 28.5291 28.5291 28.5291 28.5291 28.5291 28.5291 28.5291 28.5291 28.5291 28.5291 28.5291 28.5291 28.5291 28.5291 28.5291 28.5291 28.5291 28.5291 28.5291 28.5291 28.5291 28.5291 28.5291 47.5291 28.5291 28.5291 114.529 33.5291 124.529 28.5291 28.5291 366.529 29.5291 31.5291 28.5291 28.5291 28.5291 57.5291 46.5291 28.5291 28.5291 28.5291 28.5291 28.5291 28.5291 28.5291 31.5291 28.5291 28.5291 90.5291 28.5291 29.5291 28.5291 28.5291 28.5291 67.5291 58.5291 32.5291 28.5291 28.5291 178.529 28.5291 28.5291 28.5291 28.5291 28.5291 28.5291 29.5291 28.5291 194.529 28.5291 28.5291 28.5291 74.5291 51.5291 28.5291 148.529 28.5291 28.5291 28.5291 28.5291 28.5291 28.5291 28.5291 28.5291 28.5291 28.5291 28.5291 28.5291 36.5291 28.5291 28.5291 28.5291 28.5291 28.5291 28.5291 28.5291 28.5291 28.5291 28.5291 28.5291 28.5291 28.5291 215.529 49.5291 28.5291 28.5291 28.5291 28.5291 28.5291 28.5291 28.5291 1153.53 68.5291 28.5291 28.5291 28.5291 28.5291 28.5291 28.5291 28.5291 28.5291 28.5291 28.5291 28.5291 28.5291 28.5291 28.5291 28.5291 28.5291 28.5291 28.5291 28.5291 28.5291 28.5291 28.5291 28.5291 28.5291 28.5291 318.529 187.529 99.5291 28.5291 28.5291 61.5291 28.5291 28.5291 28.5291 28.5291 128.529 28.5291 28.5291 28.5291 28.5291 28.5291 28.5291 391.529 28.5291 28.5291 28.5291 28.5291 28.5291 28.5291 28.5291 28.5291 28.5291 28.5291 168.529 28.5291 28.5291 28.5291 28.5291 28.5291 28.5291 28.5291 28.5291 28.5291 65.5291 248.529 28.5291 385.529 28.5291 28.5291 28.5291 28.5291 382.529 249.529 28.5291 28.5291 28.5291 28.5291 28.5291 28.5291 28.5291 28.5291 28.5291 160.529 123.529 28.5291 28.5291 28.5291 28.5291 28.5291 28.5291 28.5291 28.5291 28.5291 28.5291 177.529 28.5291 28.5291 28.5291 69.5291 28.5291 28.5291 28.5291 28.5291 28.5291 31.5291 28.5291 28.5291 63.5291 72.5291 61.5291 28.5291 28.5291 28.5291 28.5291 28.5291 28.5291 28.5291 85.5291 43.5291 28.5291 28.5291 28.5291 28.5291 28.5291 28.5291 36.5291 28.5291 28.5291 28.5291 28.5291 32.5291 84.5291 39.5291 28.5291 28.5291 28.5291 96.5291 79.5291 29.5291 28.5291 28.5291 124.529 28.5291 28.5291 28.5291 28.5291 34.5291 28.5291 28.5291 28.5291 28.5291 28.5291 28.5291 28.5291 28.5291 28.5291 28.5291 28.5291 28.5291 28.5291 28.5291 28.5291 28.5291 28.5291 28.5291 28.5291 28.5291 28.5291 32.5291 28.5291 28.5291 28.5291 72.5291 28.5291 28.5291 28.5291 28.5291 28.5291 28.5291 28.5291 28.5291 28.5291 28.5291 29.5291 28.5291 28.5291 28.5291 28.5291 28.5291 28.5291 28.5291 28.5291 28.5291 28.5291 28.5291 380.529 28.5291 28.5291 28.5291 28.5291 28.5291 28.5291 52.5291 28.5291 28.5291 28.5291 28.5291 28.5291 28.5291 28.5291 28.5291 28.5291 28.5291 28.5291 28.5291 28.5291 31.5291 36.5291 32.5291 28.5291 28.5291 652.529 28.5291 28.5291 28.5291 28.5291 28.5291 28.5291 28.5291 28.5291 28.5291 28.5291 28.5291 28.5291 28.5291 28.5291 28.5291 28.5291 88.5291 208.529 28.5291 28.5291 28.5291 28.5291 28.5291 28.5291 28.5291 28.5291 28.5291 43.5291 28.5291 28.5291 28.5291 28.5291 28.5291 28.5291 28.5291 28.5291 187.529 28.5291 28.5291 28.5291 28.5291 28.5291 28.5291 28.5291 28.5291 28.5291 28.5291 28.5291 28.5291 28.5291 28.5291 28.5291 28.5291 28.5291 28.5291 132.529 28.5291 28.5291 28.5291 28.5291 28.5291 28.5291 28.5291 28.5291 28.5291 28.5291 28.5291 28.5291 28.5291 28.5291 28.5291 28.5291 28.5291 28.5291 28.5291 28.5291 28.5291 28.5291 28.5291 28.5291 28.5291 501.529 28.5291 28.5291 28.5291 28.5291 30.5291 28.5291 28.5291 28.5291 28.5291 28.5291 28.5291 30.5291 162.529 28.5291 28.5291 28.5291 28.5291 28.5291 28.5291 28.5291 28.5291 28.5291 28.5291 28.5291 28.5291 28.5291 28.5291 28.5291 28.5291 28.5291 28.5291 28.5291 28.5291 28.5291 28.5291 28.5291 28.5291 28.5291 28.5291 28.5291 30.5291 70.5291 28.5291 28.5291 28.5291 28.5291 28.5291 28.5291 28.5291 28.5291 28.5291 28.5291 28.5291 28.5291 28.5291 28.5291 28.5291 128.529 37.5291 33.5291 28.5291 28.5291 28.5291 28.5291 28.5291 28.5291 28.5291 28.5291 28.5291 28.5291 28.5291 72.5291 28.5291 28.5291 40.5291 28.5291 28.5291 28.5291 28.5291 28.5291 28.5291 28.5291 28.5291 28.5291 28.5291 28.5291 126.529 28.5291 28.5291 28.5291 28.5291 28.5291 28.5291 28.5291 28.5291 56.5291 28.5291 28.5291 28.5291 28.5291 28.5291 28.5291 28.5291 28.5291 28.5291 28.5291 28.5291 66.5291 28.5291 28.5291 29.5291 28.5291 28.5291 28.5291 28.5291 28.5291 28.5291 28.5291 211.529 28.5291 28.5291 28.5291 28.5291 28.5291 28.5291 28.5291 43.5291 28.5291 28.5291 28.5291 28.5291 28.5291 28.5291 28.5291 28.5291 28.5291 28.5291 28.5291 28.5291 28.5291 28.5291 28.5291 28.5291 28.5291 31.5291 28.5291 28.5291 32.5291 28.5291 28.5291 28.5291 28.5291 28.5291 28.5291 28.5291 28.5291 28.5291 28.5291 28.5291 28.5291 28.5291 28.5291 28.5291 28.5291 28.5291 28.5291 98.5291 50.5291 1000.53 68.5291 28.5291 28.5291 28.5291 28.5291 28.5291 28.5291 28.5291 28.5291 28.5291 28.5291 432.529 28.5291 206.529 28.5291 28.5291 28.5291 123.529 28.5291 28.5291 28.5291 28.5291 89.5291 28.5291 28.5291 28.5291 28.5291 28.5291 75.5291 28.5291 28.5291 28.5291 44.5291 28.5291 28.5291 28.5291 28.5291 28.5291 28.5291 28.5291 28.5291 28.5291 28.5291 28.5291 28.5291 28.5291 28.5291 28.5291 28.5291 28.5291 71.5291 224.529 28.5291 69.5291 28.5291 28.5291 28.5291 28.5291 28.5291 28.5291 28.5291 28.5291 28.5291 28.5291 28.5291 28.5291 28.5291 28.5291 28.5291 28.5291 28.5291 30.5291 28.5291 49.5291 279.529 28.5291 28.5291 28.5291 28.5291 28.5291 28.5291 28.5291 28.5291 28.5291 28.5291 28.5291 28.5291 37.5291 286.529 28.5291 28.5291 32.5291 28.5291 28.5291 28.5291 28.5291 28.5291 28.5291 28.5291 28.5291 28.5291 28.5291 28.5291 28.5291 28.5291 28.5291 272.529 96.5291 36.5291 28.5291 28.5291 201.529 28.5291 28.5291 28.5291 28.5291 28.5291 394.529 28.5291 65.5291 28.5291 28.5291 28.5291 28.5291 28.5291 322.529 109.529 44.5291 28.5291 108.529 28.5291 28.5291 28.5291 28.5291 28.5291 28.5291 28.5291 28.5291 28.5291 28.5291 28.5291 28.5291 28.5291 28.5291 28.5291 28.5291 38.5291 28.5291 28.5291 40.5291 28.5291 28.5291 28.5291 28.5291 28.5291 28.5291 28.5291 28.5291 28.5291 28.5291 28.5291 28.5291 28.5291 153.529 53.5291 28.5291 28.5291 28.5291 28.5291 28.5291 28.5291 28.5291 28.5291 28.5291 28.5291 28.5291 28.5291 28.5291 28.5291 28.5291 28.5291 28.5291 28.5291 28.5291 28.5291 28.5291 28.5291 28.5291 28.5291 28.5291 28.5291 28.5291 28.5291 28.5291 28.5291 28.5291 28.5291 28.5291 28.5291 28.5291 88.5291 28.5291 28.5291 28.5291 28.5291 28.5291 28.5291 28.5291 28.5291 28.5291 28.5291 28.5291 28.5291 28.5291 28.5291 28.5291 28.5291 28.5291 28.5291 28.5291 28.5291 28.5291 28.5291 28.5291 28.5291 28.5291 28.5291 28.5291 28.5291 28.5291 28.5291 28.5291 28.5291 28.5291 28.5291 28.5291 28.5291 28.5291 28.5291 28.5291 28.5291 46.5291 28.5291 28.5291 28.5291 28.5291 28.5291 28.5291 28.5291 28.5291 28.5291 28.5291 28.5291 28.5291 28.5291 28.5291 28.5291 99.5291 62.5291 28.5291 28.5291 28.5291 28.5291 28.5291 28.5291 28.5291 28.5291 28.5291 28.5291 28.5291 28.5291 28.5291 28.5291 28.5291 28.5291 28.5291 28.5291 28.5291 28.5291 28.5291 28.5291 38.5291 28.5291 28.5291 28.5291 28.5291 28.5291 28.5291 28.5291 28.5291 28.5291 28.5291 28.5291 38.5291 102.529 253.529 142.529 28.5291 28.5291 29.5291 28.5291 28.5291 28.5291 28.5291 28.5291 28.5291 28.5291 28.5291 28.5291 28.5291 28.5291 28.5291 28.5291 28.5291 28.5291 28.5291 28.5291 28.5291 28.5291 28.5291 28.5291 28.5291 28.5291 28.5291 28.5291 28.5291 28.5291 28.5291 28.5291 28.5291 28.5291 28.5291 28.5291 52.5291 28.5291 28.5291 28.5291 28.5291 28.5291 28.5291 28.5291 28.5291 28.5291 28.5291 28.5291 28.5291 28.5291 28.5291 28.5291 28.5291 28.5291 32.5291 29.5291 28.5291 28.5291 28.5291 28.5291 28.5291 28.5291 28.5291 28.5291 28.5291 28.5291 28.5291 28.5291 28.5291 28.5291 28.5291 28.5291 28.5291 61.5291 28.5291 28.5291 28.5291 28.5291 28.5291 28.5291 94.5291 28.5291 28.5291 28.5291 28.5291 28.5291 28.5291 28.5291 28.5291 28.5291 28.5291 28.5291 28.5291 28.5291 28.5291 28.5291 28.5291 28.5291 28.5291 28.5291 28.5291 28.5291 28.5291 28.5291 28.5291 28.5291 28.5291 28.5291 28.5291 28.5291 28.5291 28.5291 28.5291 42.5291 28.5291 28.5291 32.5291 28.5291 28.5291 28.5291 28.5291 28.5291 28.5291 28.5291 28.5291 28.5291 28.5291 28.5291 28.5291 28.5291 38.5291 28.5291 28.5291 28.5291 28.5291 28.5291 28.5291 28.5291 28.5291 28.5291 28.5291 28.5291 28.5291 28.5291 28.5291 28.5291 28.5291 28.5291 28.5291 28.5291 28.5291 28.5291 28.5291 28.5291 38.5291 28.5291 28.5291 28.5291 28.5291 28.5291 28.5291 28.5291 28.5291 28.5291 28.5291 28.5291 28.5291 40.5291 37.5291 28.5291 28.5291 28.5291 28.5291 28.5291 28.5291 28.5291 28.5291 28.5291 28.5291 28.5291 28.5291 28.5291 28.5291 28.5291 28.5291 28.5291 28.5291 28.5291 28.5291 28.5291 28.5291 28.5291 28.5291 28.5291 28.5291 28.5291 28.5291 28.5291 28.5291 28.5291 28.5291 28.5291 28.5291 28.5291 28.5291 76.5291 28.5291 28.5291 28.5291 28.5291 28.5291 28.5291 28.5291 28.5291 28.5291 28.5291 28.5291 28.5291 34.5291 28.5291 67.5291 114.529 28.5291 28.5291 29.5291 148.529 88.5291 28.5291 28.5291 28.5291 28.5291 131.529 28.5291 28.5291 28.5291 28.5291 28.5291 28.5291 28.5291 28.5291 28.5291 28.5291 31.5291 28.5291 28.5291 28.5291 28.5291 28.5291 28.5291 28.5291 28.5291 28.5291 28.5291 28.5291 28.5291 28.5291 28.5291 28.5291 28.5291 28.5291 28.5291 81.5291 28.5291 28.5291 28.5291 28.5291 28.5291 28.5291 28.5291 28.5291 28.5291 28.5291 119.529 28.5291 28.5291 28.5291 28.5291 28.5291 28.5291 28.5291 28.5291 28.5291 28.5291 28.5291 28.5291 28.5291 28.5291 28.5291 28.5291 28.5291 28.5291 28.5291 28.5291 28.5291 28.5291 28.5291 79.5291 28.5291 28.5291 28.5291 108.529 28.5291 28.5291 28.5291 28.5291 28.5291 28.5291 28.5291 28.5291 28.5291 28.5291 28.5291 28.5291 28.5291 28.5291 28.5291 28.5291 28.5291 28.5291 28.5291 117.529 81.5291 28.5291 28.5291 28.5291 28.5291 28.5291 28.5291 28.5291 28.5291 28.5291 28.5291 28.5291 37.5291 28.5291 28.5291 28.5291 28.5291 28.5291 28.5291 73.5291 28.5291 28.5291 46.5291 28.5291 28.5291 28.5291 28.5291 28.5291 28.5291 28.5291 28.5291 28.5291 28.5291 28.5291 28.5291 28.5291 28.5291 98.5291 28.5291 28.5291 28.5291 28.5291 28.5291 28.5291 28.5291 28.5291 28.5291 28.5291 28.5291 28.5291 28.5291 28.5291 28.5291 28.5291 28.5291 28.5291 28.5291 28.5291 28.5291 261.529 28.5291 28.5291 28.5291 28.5291 28.5291 28.5291 28.5291 28.5291 28.5291 28.5291 28.5291 28.5291 28.5291 81.5291 28.5291 115.529 28.5291 28.5291 28.5291 28.5291 28.5291 28.5291 28.5291 28.5291 28.5291 28.5291 28.5291 28.5291 28.5291 28.5291 28.5291 28.5291 28.5291 28.5291 28.5291 28.5291 28.5291 28.5291 34.5291 28.5291 28.5291 28.5291 28.5291 28.5291 28.5291 28.5291 28.5291 28.5291 28.5291 28.5291 28.5291 28.5291 28.5291 29.5291 28.5291 28.5291 28.5291 28.5291 28.5291 28.5291 28.5291 28.5291 50.5291 28.5291 28.5291 28.5291 28.5291 28.5291 28.5291 28.5291 28.5291 28.5291 28.5291 28.5291 28.5291 28.5291 28.5291 28.5291 28.5291 28.5291 28.5291 28.5291 28.5291 28.5291 75.5291 28.5291 76.5291 28.5291 28.5291 28.5291 34.5291 28.5291 28.5291 81.5291 28.5291 28.5291 28.5291 28.5291 28.5291 28.5291 28.5291 63.5291 80.5291 28.5291 28.5291 28.5291 28.5291 28.5291 28.5291 28.5291 28.5291 28.5291 28.5291 28.5291 28.5291 28.5291 28.5291 28.5291 28.5291 28.5291 28.5291 28.5291 28.5291 28.5291 47.5291 28.5291 28.5291 29.5291 28.5291 28.5291 29.5291 28.5291 28.5291 28.5291 28.5291 28.5291 28.5291 28.5291 28.5291 28.5291 28.5291 28.5291 28.5291 28.5291 28.5291 246.529 28.5291 33.5291 229.529 28.5291 28.5291 28.5291 28.5291 28.5291 28.5291 28.5291 28.5291 28.5291 38.5291 65.5291 28.5291 28.5291 28.5291 28.5291 29.5291 34.5291 28.5291 28.5291 28.5291 28.5291 28.5291 28.5291 28.5291 28.5291 28.5291 28.5291 28.5291 28.5291 28.5291 28.5291 28.5291 28.5291 28.5291 44.5291 28.5291 30.5291 28.5291 28.5291 28.5291 28.5291 28.5291 28.5291 28.5291 28.5291 28.5291 28.5291 28.5291 28.5291 28.5291 28.5291 28.5291 28.5291 164.529 28.5291 28.5291 28.5291 33.5291 28.5291 28.5291 28.5291 28.5291 28.5291 28.5291 28.5291 28.5291 28.5291 28.5291 28.5291 28.5291 28.5291 28.5291 84.5291 28.5291 28.5291 28.5291 28.5291 28.5291 28.5291 28.5291 28.5291 28.5291 28.5291 28.5291 28.5291 28.5291 28.5291 28.5291 28.5291 28.5291 29.5291 61.5291 28.5291 28.5291 28.5291 28.5291 28.5291 
rewards of Offsets elements: 0 42 141 0 0 0 0 1607 0 0 0 1436 628 93 45 894 0 0 0 0 1636 1526 0 0 546 0 0 0 0 0 0 324 2115 0 0 0 1332 304 16 0 0 0 0 0 0 0 0 0 0 86 187 0 0 0 0 0 0 0 0 0 0 299 0 0 130 0 0 141 4 8 562 0 485 0 0 0 0 506 0 0 0 0 0 0 0 0 0 0 0 0 0 0 0 0 0 0 0 17 0 0 0 60 2 33 38 98 84 500 56 360 0 0 0 0 0 0 0 0 0 0 0 0 0 0 0 0 0 22 0 0 0 0 0 0 0 0 55 0 871 30 0 37 245 4 17 0 0 0 0 0 0 0 0 0 36 0 0 0 0 0 0 0 0 0 0 0 0 0 0 0 0 28 0 0 0 0 58 0 53 0 205 0 2 0 0 0 0 12 0 0 0 0 0 0 0 0 0 0 0 0 0 0 0 0 0 0 0 0 0 0 0 0 0 0 0 0 736 30 52 12 0 0 15 0 0 0 0 0 0 0 0 0 0 0 0 0 0 0 0 0 0 0 0 0 0 0 0 0 0 0 0 0 0 0 495 451 0 2 0 0 0 0 0 0 0 0 0 0 0 0 0 0 0 23 2 0 0 39 0 0 0 0 0 0 0 0 70 0 0 0 0 0 0 0 0 38 0 0 0 0 0 0 0 0 0 0 0 0 0 0 0 0 507 0 3 0 0 0 0 0 12 0 0 0 0 0 0 0 0 0 0 0 18 44 0 0 0 0 0 0 0 0 0 0 0 0 38 0 0 1 3 0 0 0 0 0 0 0 0 0 0 224 0 0 0 188 0 0 0 0 0 0 0 0 0 305 0 114 0 0 0 0 0 0 0 0 0 0 22 0 0 0 0 15 0 0 0 0 0 0 0 0 0 0 0 0 33 0 0 0 0 0 0 0 0 0 0 0 0 0 0 0 0 0 0 0 0 14 0 74 0 0 0 0 0 0 0 0 382 0 0 0 0 0 17 5 0 0 0 0 0 0 0 0 0 0 0 0 0 0 0 0 0 0 0 0 0 0 0 0 0 0 0 0 0 0 0 0 0 0 0 0 0 299 0 0 93 0 0 0 0 0 0 0 0 0 0 0 0 0 0 0 0 0 0 0 0 0 0 0 0 1 0 0 0 0 0 0 0 0 0 0 0 0 0 0 0 0 0 0 0 0 0 0 0 0 0 0 0 0 0 0 0 0 0 0 0 0 0 0 0 0 0 0 0 0 196 32 22 0 0 0 0 0 0 0 0 36 0 0 0 0 0 0 0 0 0 0 0 0 0 0 0 0 0 0 20 465 658 126 0 10 0 0 20 12 0 0 0 0 0 0 0 0 0 0 0 0 0 0 0 0 0 0 0 0 0 0 0 0 0 0 0 0 0 0 0 21 0 0 1 22 0 0 0 0 0 9 0 0 0 8 0 0 0 252 5 36 0 0 140 0 0 0 0 0 0 0 0 0 0 0 0 96 0 0 0 0 0 14 0 82 0 0 0 0 0 0 0 0 0 0 0 0 6 0 0 0 1 294 0 0 0 0 0 0 0 0 0 0 438 7 0 0 0 0 0 0 0 202 0 0 0 0 0 0 0 0 0 0 468 6 8 90 0 6 0 81 0 0 0 0 0 0 0 0 0 0 0 0 0 3 94 0 0 0 0 0 210 0 0 0 0 0 0 208 360 0 138 0 0 0 0 0 0 0 0 0 0 0 0 0 0 0 0 0 17 0 8 0 0 0 0 0 294 114 74 0 0 0 0 0 0 0 0 0 0 0 0 54 0 0 0 558 0 0 0 0 7 0 0 2 0 0 0 0 20 0 150 0 14 48 51 0 624 0 0 0 0 0 0 0 0 0 0 0 0 0 0 85 0 1 0 0 0 0 0 0 0 0 0 0 45 0 0 0 0 0 3 384 0 0 0 0 0 0 0 0 0 0 0 0 0 0 0 0 0 30 0 28 0 0 0 2 0 0 0 73 2 0 0 0 3 0 0 0 50 0 0 0 0 0 0 0 0 0 0 0 0 0 0 0 0 0 0 0 0 0 0 0 19 0 0 86 5 96 0 0 338 1 3 0 0 0 29 18 0 0 0 0 0 0 0 3 0 0 62 0 1 0 0 0 39 30 4 0 0 150 0 0 0 0 0 0 1 0 166 0 0 0 46 23 0 120 0 0 0 0 0 0 0 0 0 0 0 0 8 0 0 0 0 0 0 0 0 0 0 0 0 0 187 21 0 0 0 0 0 0 0 1125 40 0 0 0 0 0 0 0 0 0 0 0 0 0 0 0 0 0 0 0 0 0 0 0 0 0 290 159 71 0 0 33 0 0 0 0 100 0 0 0 0 0 0 363 0 0 0 0 0 0 0 0 0 0 140 0 0 0 0 0 0 0 0 0 37 220 0 357 0 0 0 0 354 221 0 0 0 0 0 0 0 0 0 132 95 0 0 0 0 0 0 0 0 0 0 149 0 0 0 41 0 0 0 0 0 3 0 0 35 44 33 0 0 0 0 0 0 0 57 15 0 0 0 0 0 0 8 0 0 0 0 4 56 11 0 0 0 68 51 1 0 0 96 0 0 0 0 6 0 0 0 0 0 0 0 0 0 0 0 0 0 0 0 0 0 0 0 0 0 4 0 0 0 44 0 0 0 0 0 0 0 0 0 0 1 0 0 0 0 0 0 0 0 0 0 0 352 0 0 0 0 0 0 24 0 0 0 0 0 0 0 0 0 0 0 0 0 3 8 4 0 0 624 0 0 0 0 0 0 0 0 0 0 0 0 0 0 0 0 60 180 0 0 0 0 0 0 0 0 0 15 0 0 0 0 0 0 0 0 159 0 0 0 0 0 0 0 0 0 0 0 0 0 0 0 0 0 0 104 0 0 0 0 0 0 0 0 0 0 0 0 0 0 0 0 0 0 0 0 0 0 0 0 0 473 0 0 0 0 2 0 0 0 0 0 0 2 134 0 0 0 0 0 0 0 0 0 0 0 0 0 0 0 0 0 0 0 0 0 0 0 0 0 0 0 2 42 0 0 0 0 0 0 0 0 0 0 0 0 0 0 0 100 9 5 0 0 0 0 0 0 0 0 0 0 0 44 0 0 12 0 0 0 0 0 0 0 0 0 0 0 98 0 0 0 0 0 0 0 0 28 0 0 0 0 0 0 0 0 0 0 0 38 0 0 1 0 0 0 0 0 0 0 183 0 0 0 0 0 0 0 15 0 0 0 0 0 0 0 0 0 0 0 0 0 0 0 0 0 3 0 0 4 0 0 0 0 0 0 0 0 0 0 0 0 0 0 0 0 0 0 70 22 972 40 0 0 0 0 0 0 0 0 0 0 404 0 178 0 0 0 95 0 0 0 0 61 0 0 0 0 0 47 0 0 0 16 0 0 0 0 0 0 0 0 0 0 0 0 0 0 0 0 0 43 196 0 41 0 0 0 0 0 0 0 0 0 0 0 0 0 0 0 0 0 2 0 21 251 0 0 0 0 0 0 0 0 0 0 0 0 9 258 0 0 4 0 0 0 0 0 0 0 0 0 0 0 0 0 0 244 68 8 0 0 173 0 0 0 0 0 366 0 37 0 0 0 0 0 294 81 16 0 80 0 0 0 0 0 0 0 0 0 0 0 0 0 0 0 0 10 0 0 12 0 0 0 0 0 0 0 0 0 0 0 0 0 125 25 0 0 0 0 0 0 0 0 0 0 0 0 0 0 0 0 0 0 0 0 0 0 0 0 0 0 0 0 0 0 0 0 0 0 0 60 0 0 0 0 0 0 0 0 0 0 0 0 0 0 0 0 0 0 0 0 0 0 0 0 0 0 0 0 0 0 0 0 0 0 0 0 0 0 0 0 18 0 0 0 0 0 0 0 0 0 0 0 0 0 0 0 71 34 0 0 0 0 0 0 0 0 0 0 0 0 0 0 0 0 0 0 0 0 0 0 10 0 0 0 0 0 0 0 0 0 0 0 10 74 225 114 0 0 1 0 0 0 0 0 0 0 0 0 0 0 0 0 0 0 0 0 0 0 0 0 0 0 0 0 0 0 0 0 0 0 0 0 24 0 0 0 0 0 0 0 0 0 0 0 0 0 0 0 0 0 4 1 0 0 0 0 0 0 0 0 0 0 0 0 0 0 0 0 0 33 0 0 0 0 0 0 66 0 0 0 0 0 0 0 0 0 0 0 0 0 0 0 0 0 0 0 0 0 0 0 0 0 0 0 0 0 0 0 0 14 0 0 4 0 0 0 0 0 0 0 0 0 0 0 0 0 10 0 0 0 0 0 0 0 0 0 0 0 0 0 0 0 0 0 0 0 0 0 0 0 10 0 0 0 0 0 0 0 0 0 0 0 0 12 9 0 0 0 0 0 0 0 0 0 0 0 0 0 0 0 0 0 0 0 0 0 0 0 0 0 0 0 0 0 0 0 0 0 0 0 0 48 0 0 0 0 0 0 0 0 0 0 0 0 6 0 39 86 0 0 1 120 60 0 0 0 0 103 0 0 0 0 0 0 0 0 0 0 3 0 0 0 0 0 0 0 0 0 0 0 0 0 0 0 0 0 0 53 0 0 0 0 0 0 0 0 0 0 91 0 0 0 0 0 0 0 0 0 0 0 0 0 0 0 0 0 0 0 0 0 0 0 51 0 0 0 80 0 0 0 0 0 0 0 0 0 0 0 0 0 0 0 0 0 0 0 89 53 0 0 0 0 0 0 0 0 0 0 0 9 0 0 0 0 0 0 45 0 0 18 0 0 0 0 0 0 0 0 0 0 0 0 0 0 70 0 0 0 0 0 0 0 0 0 0 0 0 0 0 0 0 0 0 0 0 0 233 0 0 0 0 0 0 0 0 0 0 0 0 0 53 0 87 0 0 0 0 0 0 0 0 0 0 0 0 0 0 0 0 0 0 0 0 0 0 6 0 0 0 0 0 0 0 0 0 0 0 0 0 0 1 0 0 0 0 0 0 0 0 22 0 0 0 0 0 0 0 0 0 0 0 0 0 0 0 0 0 0 0 0 0 47 0 48 0 0 0 6 0 0 53 0 0 0 0 0 0 0 35 52 0 0 0 0 0 0 0 0 0 0 0 0 0 0 0 0 0 0 0 0 0 19 0 0 1 0 0 1 0 0 0 0 0 0 0 0 0 0 0 0 0 0 218 0 5 201 0 0 0 0 0 0 0 0 0 10 37 0 0 0 0 1 6 0 0 0 0 0 0 0 0 0 0 0 0 0 0 0 0 0 16 0 2 0 0 0 0 0 0 0 0 0 0 0 0 0 0 0 0 136 0 0 0 5 0 0 0 0 0 0 0 0 0 0 0 0 0 0 56 0 0 0 0 0 0 0 0 0 0 0 0 0 0 0 0 0 1 33 0 0 0 0 0 Printing Sanity3
offset_index value2408
offset list size2408
reward size2408
potential size2408
-----------------------------------------------------------------------------------------------------------------------------------------------------------------------------------------------------

DRAM Statistics
 CHANNEL 0
 RQ ROW_BUFFER_HIT:      16724  ROW_BUFFER_MISS:      33028
 DBUS_CONGESTED:         30
 WQ ROW_BUFFER_HIT:        638  ROW_BUFFER_MISS:       5573  FULL:          0

 AVG_CONGESTED_CYCLE: 5
 All warmup complete: 2
Channel 0 Bank busy for read cycles: 0
Channel 0 Bank busy for write cycles: 0
Channel 0
Rank 0
0banks busy for read cycles: 645120900
0banks busy for write cycles: 4326
1banks busy for read cycles: 3416175
1banks busy for write cycles: 628953
2banks busy for read cycles: 429002
2banks busy for write cycles: 91743
3banks busy for read cycles: 159976
3banks busy for write cycles: 29823
4banks busy for read cycles: 91431
4banks busy for write cycles: 12418
5banks busy for read cycles: 57127
5banks busy for write cycles: 8880
6banks busy for read cycles: 35644
6banks busy for write cycles: 5028
7banks busy for read cycles: 16591
7banks busy for write cycles: 2555
8banks busy for read cycles: 6901
8banks busy for write cycles: 1212

CPU 0 Branch Prediction Accuracy: 99.8229% MPKI: 0.32073 Average ROB Occupancy at Mispredict: 50.6459
Branch types
NOT_BRANCH: 163788288 81.8941%
BRANCH_DIRECT_JUMP: 2019656 1.00983%
BRANCH_INDIRECT: 11895775 5.94789%
BRANCH_CONDITIONAL: 13352291 6.67615%
BRANCH_DIRECT_CALL: 3770965 1.88548%
BRANCH_INDIRECT_CALL: 701087 0.350543%
BRANCH_RETURN: 4471983 2.23599%
BRANCH_OTHER: 0 0%

DRAM PAGES: 1048576
Allocated PAGES: 4194
