
*** ChampSim Multicore Out-of-Order Simulator ***

Warmup Instructions: 50000000
Simulation Instructions: 200000000
Number of CPUs: 1
LLC sets: 2048
LLC ways: 16
Off-chip DRAM Size: 4096 MB Channels: 1 Width: 64-bit Data Rate: 6400 MT/s
CPU 0 runs traces/spec2k17/srv_11.champsimtrace.xz
.xz
BTB has LRU replacement policy
ITLB has LRU replacement policy
DTLB has LRU replacement policy
STLB has LRU replacement policy
L1I has LRU replacement policy
L1D has LRU replacement policy
Initialize SRRIP state for L2C
Initialize DRRIP state for LLC
Offsets elements: 
Potential of Offsets elements: 
rewards of Offsets elements: 
Printing Sanity1
offset list size2458
Offsets elements: 
Potential of Offsets elements: 
rewards of Offsets elements: 0 1894 803 1713 338 355 0 0 0 0 0 0 0 29 0 36 6 68 54 0 0 0 0 0 0 0 0 0 0 0 0 0 889 0 0 0 1090 0 0 15 0 0 1732 0 0 0 0 0 0 0 0 0 0 0 616 0 0 0 0 0 0 0 0 0 1379 0 16 100 36 0 0 0 0 0 0 0 0 0 0 0 0 0 0 0 0 0 0 24 0 0 0 0 0 0 0 0 0 0 0 0 0 0 0 0 0 0 1 0 0 0 0 0 571 0 0 0 0 0 60 0 0 0 0 0 0 0 0 0 0 0 0 0 310 0 0 1 0 0 0 0 0 0 0 0 0 0 0 0 0 0 0 0 0 0 0 0 0 0 0 20 0 0 32 48 9 0 5 6 0 0 0 0 8 0 0 0 0 0 0 0 0 0 0 0 0 0 0 0 0 0 250 0 0 0 0 0 0 40 0 8 1 1 0 0 0 0 0 0 16 0 0 0 0 0 0 0 240 0 0 0 0 0 0 0 0 0 0 0 6 12 0 0 0 0 0 0 0 0 0 0 0 0 0 0 0 0 0 0 0 0 0 0 0 0 0 0 0 0 0 0 0 0 0 0 0 0 0 0 6 69 0 0 0 0 0 0 0 0 0 0 0 0 1 1 9 0 0 0 0 3 0 0 0 0 0 0 0 0 0 0 0 0 0 0 0 0 0 0 0 0 0 0 0 0 0 0 0 0 0 0 0 0 0 0 0 0 0 0 0 0 6 0 0 4 0 0 0 0 0 0 0 0 0 0 0 0 0 0 0 0 0 0 0 0 0 0 0 0 0 0 0 0 0 0 0 0 0 0 0 0 0 0 0 0 0 0 0 0 1 10 0 0 0 0 0 0 0 0 0 0 0 0 0 0 0 0 0 0 0 20 1 2 0 0 0 0 0 0 0 0 0 0 0 0 0 0 0 0 0 0 0 0 0 395 0 0 0 0 0 215 0 0 0 0 20 0 0 0 0 0 0 0 7 0 0 0 0 0 0 0 4 0 0 0 0 0 0 0 0 0 36 0 0 63 68 0 0 0 0 0 0 0 0 0 3 0 0 29 0 109 6 4 0 0 0 0 0 0 0 0 0 0 0 0 0 0 0 0 0 0 0 0 0 0 0 0 0 0 0 0 0 0 0 0 0 25 0 0 0 0 0 0 0 185 3 0 0 0 0 0 0 0 0 0 0 0 0 0 0 0 0 0 0 0 0 0 0 0 0 1 0 0 153 0 0 0 0 0 0 0 0 83 52 0 0 39 0 0 0 0 0 0 0 0 0 0 0 0 0 0 0 0 0 0 0 0 0 0 0 0 48 0 0 0 12 0 0 0 0 0 0 0 0 0 0 0 0 12 0 0 198 0 0 0 0 0 0 0 0 0 0 0 0 0 0 661 0 0 0 0 0 0 0 0 0 0 0 0 0 0 0 0 0 0 0 4 0 0 0 0 0 0 0 0 0 0 0 0 0 0 0 0 0 0 0 0 0 0 0 0 0 0 0 0 121 0 0 0 0 0 0 0 0 0 0 0 1 0 0 0 0 0 0 0 0 0 0 0 0 0 0 0 0 0 0 0 0 0 0 0 0 0 0 0 0 0 0 0 0 0 0 0 0 0 0 0 0 0 0 0 0 0 0 0 0 0 0 12 4 0 0 0 0 0 0 719 0 0 0 0 0 0 0 81 0 0 0 0 0 0 0 0 0 0 0 0 0 0 0 0 0 0 0 0 0 0 0 0 0 0 0 0 0 0 0 0 0 0 0 0 0 0 0 0 0 0 0 0 0 0 0 257 0 0 0 0 0 0 0 8 0 0 0 0 0 0 0 0 0 0 0 0 0 0 0 0 0 36 0 32 0 0 0 0 0 0 0 0 0 0 0 0 0 146 0 0 0 0 0 0 0 0 0 0 0 0 0 0 0 0 0 0 0 0 0 0 0 0 0 0 0 0 10 119 0 8 24 41 0 0 0 0 0 0 0 0 0 0 0 0 0 0 0 0 0 0 0 0 0 0 0 0 0 0 0 0 0 0 0 0 0 0 0 0 0 48 0 2 0 0 0 18 0 0 0 0 0 0 0 0 0 0 0 0 21 0 0 0 0 0 0 0 0 0 0 0 0 0 0 0 0 0 13 0 0 0 0 0 0 0 0 0 0 0 0 0 0 0 0 0 0 0 0 0 6 84 0 0 0 0 0 0 0 0 0 0 0 0 0 0 0 0 0 0 0 0 0 0 0 0 0 48 0 0 0 0 0 0 0 0 0 0 0 594 0 0 0 0 21 0 30 0 0 0 0 0 0 0 0 0 0 0 0 0 0 0 0 0 0 0 0 0 0 0 0 0 0 0 0 0 0 0 0 0 0 0 0 0 0 0 0 0 0 0 0 0 0 0 0 1 0 0 0 0 0 0 0 0 0 0 0 0 0 0 0 0 0 0 0 0 0 0 0 0 0 0 0 0 2 11 0 0 0 0 0 0 0 0 0 0 0 0 0 0 0 0 0 0 0 0 0 0 0 0 0 5 0 0 0 0 0 0 0 0 0 0 78 10 0 0 2 2 2 1 0 0 0 0 0 0 0 0 0 0 0 0 0 0 0 0 0 0 0 0 0 0 0 0 0 0 0 0 0 0 0 0 0 173 189 204 0 0 0 0 0 0 0 0 0 0 0 0 0 0 0 0 0 0 0 0 0 0 0 3 0 0 0 0 0 0 0 0 0 9 0 0 0 0 0 0 0 0 0 0 0 0 0 0 0 0 0 0 0 0 0 0 0 0 0 0 0 0 0 0 0 0 0 0 0 0 0 0 0 0 0 0 0 0 0 0 0 50 0 0 0 16 0 0 0 0 0 0 0 261 0 0 0 0 0 0 0 0 0 0 210 0 0 0 0 0 0 0 0 0 12 0 0 0 0 0 0 11 0 0 0 0 0 0 0 0 0 0 0 0 0 0 0 0 0 0 0 0 0 0 0 0 0 0 0 0 0 0 0 0 0 0 0 0 0 0 0 0 0 0 0 0 0 0 0 0 0 0 0 0 0 0 0 0 7 0 0 0 0 0 0 0 0 0 0 0 0 0 0 0 0 0 0 0 0 0 0 0 0 0 0 0 0 0 0 0 0 0 13 0 0 0 0 0 0 0 0 0 0 0 0 0 0 0 0 0 0 0 0 0 0 0 0 165 298 0 0 0 0 0 0 0 0 0 0 6 2 0 0 0 1 9 16 36 70 36 42 196 40 0 0 190 0 0 116 72 0 0 0 0 0 0 0 3 0 0 0 0 0 168 0 0 0 0 77 362 30 36 156 0 18 70 6 0 0 0 0 0 0 0 0 0 0 0 0 0 0 0 0 16 0 15 0 0 0 0 0 0 0 0 0 0 0 0 0 0 0 0 0 0 0 0 0 0 0 0 0 0 0 0 0 0 0 0 0 0 0 0 0 0 0 0 0 0 0 0 0 0 0 0 0 0 0 0 0 0 0 0 0 0 0 0 0 0 0 0 0 429 30 0 0 9 0 0 0 0 0 0 0 0 0 0 0 0 0 0 0 0 0 0 0 0 0 0 0 0 0 0 0 0 0 0 0 0 0 0 0 0 0 0 0 0 0 0 0 0 0 0 0 0 0 0 0 0 0 0 0 0 0 0 0 0 0 0 0 0 0 0 0 22 0 0 27 2 0 0 0 0 0 0 0 0 0 0 0 0 0 0 0 0 0 0 0 0 0 0 0 0 0 0 0 0 0 0 0 0 0 0 0 0 29 0 0 38 0 0 0 0 0 0 0 0 0 0 0 0 0 0 0 0 0 0 0 0 0 0 0 0 0 0 0 0 367 439 0 0 0 0 314 0 0 0 0 0 0 0 0 0 0 0 0 0 0 0 0 0 0 0 0 0 0 0 0 0 0 0 0 0 0 0 0 0 0 0 0 0 0 0 0 0 0 0 0 0 0 0 0 0 0 0 0 0 0 0 0 0 0 0 0 0 0 0 0 0 0 0 0 0 0 0 0 0 0 0 0 0 0 0 0 0 0 0 0 0 0 0 0 0 0 12 0 0 0 0 0 0 0 0 0 0 0 0 0 0 0 0 0 0 0 0 0 0 0 0 0 0 0 0 0 0 0 0 0 0 0 0 0 0 0 0 0 0 0 27 54 0 0 0 0 0 0 0 0 0 0 0 0 0 0 0 0 0 0 0 0 0 0 0 0 0 0 0 0 0 0 0 0 0 0 0 0 0 0 0 0 0 0 0 0 0 0 0 0 0 0 0 0 0 0 0 0 0 0 0 0 0 0 0 0 0 0 0 0 0 0 0 0 0 0 0 0 0 0 0 0 0 0 0 0 0 0 1 0 0 0 0 0 0 0 0 0 0 0 0 0 0 0 0 0 0 0 0 0 0 0 0 0 0 0 0 0 0 0 0 0 0 0 0 0 0 0 0 0 0 0 0 0 0 0 0 0 0 0 0 0 0 0 0 0 0 0 0 0 0 0 0 0 0 0 0 0 0 0 0 0 0 0 0 0 0 0 0 0 0 0 0 0 0 0 0 0 0 0 0 0 0 0 0 0 0 0 0 0 0 0 0 0 0 0 0 0 0 0 0 0 0 0 0 0 0 0 0 0 0 0 0 0 0 0 0 0 0 0 0 0 0 0 0 0 0 0 0 0 0 0 0 0 0 0 0 0 0 0 0 0 0 0 0 0 0 0 18 0 0 0 0 0 0 0 0 0 0 0 0 0 0 0 0 0 0 0 0 0 0 0 0 0 0 0 0 0 0 0 0 0 0 0 0 0 0 0 0 0 0 0 0 0 0 0 0 0 0 0 0 0 0 0 0 0 0 0 0 0 0 0 0 0 0 0 0 0 0 0 0 0 0 0 0 0 0 0 0 0 0 0 0 0 0 0 0 0 0 0 0 0 0 0 0 0 0 0 0 0 0 0 0 0 0 0 0 0 0 0 0 0 0 0 0 0 14 0 0 0 0 0 0 0 0 0 0 0 0 0 0 0 0 0 0 1 0 0 0 0 1 0 0 0 0 0 0 0 0 0 0 0 0 0 0 0 0 0 0 0 0 0 0 0 0 0 0 0 0 0 0 0 0 0 0 0 0 0 0 0 0 0 0 0 0 0 0 0 0 0 0 0 0 0 0 0 0 0 0 0 0 0 0 0 0 0 0 0 0 0 0 0 0 0 0 0 0 0 0 0 0 0 0 0 0 0 0 0 0 0 0 0 0 0 0 0 0 0 0 0 0 0 0 0 0 0 0 0 0 0 0 0 0 0 0 0 0 0 0 0 0 0 0 8 0 0 0 0 0 0 0 0 0 0 0 0 0 0 0 0 0 0 0 0 0 0 0 0 0 0 0 0 0 0 0 0 0 0 0 0 0 0 0 0 0 0 0 0 0 0 0 0 0 0 0 0 0 0 0 0 0 0 0 0 0 0 0 0 0 0 0 0 16 12 0 0 18 0 0 0 0 0 0 0 0 0 0 0 0 0 0 0 0 0 0 0 0 0 0 0 0 
Printing Sanity2
Heartbeat CPU 0 instructions: 10000000 cycles: 3308544 heartbeat IPC: 3.02248 cumulative IPC: 3.02248 (Simulation time: 0 hr 0 min 23 sec) 
Heartbeat CPU 0 instructions: 20000002 cycles: 7842923 heartbeat IPC: 2.20537 cumulative IPC: 2.55007 (Simulation time: 0 hr 0 min 57 sec) 
Heartbeat CPU 0 instructions: 30000000 cycles: 10647957 heartbeat IPC: 3.56502 cumulative IPC: 2.81744 (Simulation time: 0 hr 1 min 18 sec) 
*** Reached end of trace for Core: 0 Repeating trace: traces/spec2k17/srv_11.champsimtrace.xz
Heartbeat CPU 0 instructions: 40000001 cycles: 13820744 heartbeat IPC: 3.1518 cumulative IPC: 2.8942 (Simulation time: 0 hr 1 min 41 sec) 
Heartbeat CPU 0 instructions: 50000000 cycles: 18521573 heartbeat IPC: 2.12728 cumulative IPC: 2.69955 (Simulation time: 0 hr 2 min 16 sec) 

Warmup complete CPU 0 instructions: 50000004 cycles: 18521574 (Simulation time: 0 hr 2 min 16 sec) 

Heartbeat CPU 0 instructions: 60000003 cycles: 42578983 heartbeat IPC: 0.415672 cumulative IPC: 0.415672 (Simulation time: 0 hr 2 min 49 sec) 
*** Reached end of trace for Core: 0 Repeating trace: traces/spec2k17/srv_11.champsimtrace.xz
Heartbeat CPU 0 instructions: 70000000 cycles: 66827090 heartbeat IPC: 0.412403 cumulative IPC: 0.414031 (Simulation time: 0 hr 3 min 22 sec) 
Heartbeat CPU 0 instructions: 80000001 cycles: 107688402 heartbeat IPC: 0.24473 cumulative IPC: 0.336448 (Simulation time: 0 hr 4 min 13 sec) 
Heartbeat CPU 0 instructions: 90000003 cycles: 132707830 heartbeat IPC: 0.399689 cumulative IPC: 0.350305 (Simulation time: 0 hr 4 min 48 sec) 
*** Reached end of trace for Core: 0 Repeating trace: traces/spec2k17/srv_11.champsimtrace.xz
Heartbeat CPU 0 instructions: 100000003 cycles: 156543970 heartbeat IPC: 0.419531 cumulative IPC: 0.36226 (Simulation time: 0 hr 5 min 22 sec) 
Heartbeat CPU 0 instructions: 110000000 cycles: 196399121 heartbeat IPC: 0.250909 cumulative IPC: 0.337311 (Simulation time: 0 hr 6 min 11 sec) 
Heartbeat CPU 0 instructions: 120000000 cycles: 222583332 heartbeat IPC: 0.38191 cumulative IPC: 0.343033 (Simulation time: 0 hr 6 min 47 sec) 
*** Reached end of trace for Core: 0 Repeating trace: traces/spec2k17/srv_11.champsimtrace.xz
Heartbeat CPU 0 instructions: 130000002 cycles: 246394421 heartbeat IPC: 0.419972 cumulative IPC: 0.351073 (Simulation time: 0 hr 7 min 20 sec) 
Heartbeat CPU 0 instructions: 140000002 cycles: 285007741 heartbeat IPC: 0.258978 cumulative IPC: 0.337729 (Simulation time: 0 hr 8 min 9 sec) 
Heartbeat CPU 0 instructions: 150000002 cycles: 312178151 heartbeat IPC: 0.368047 cumulative IPC: 0.340534 (Simulation time: 0 hr 8 min 46 sec) 
*** Reached end of trace for Core: 0 Repeating trace: traces/spec2k17/srv_11.champsimtrace.xz
Heartbeat CPU 0 instructions: 160000003 cycles: 336149575 heartbeat IPC: 0.417163 cumulative IPC: 0.346317 (Simulation time: 0 hr 9 min 20 sec) 
Heartbeat CPU 0 instructions: 170000000 cycles: 373553755 heartbeat IPC: 0.26735 cumulative IPC: 0.337998 (Simulation time: 0 hr 10 min 6 sec) 
Heartbeat CPU 0 instructions: 180000001 cycles: 401894038 heartbeat IPC: 0.352855 cumulative IPC: 0.339096 (Simulation time: 0 hr 10 min 45 sec) 
*** Reached end of trace for Core: 0 Repeating trace: traces/spec2k17/srv_11.champsimtrace.xz
Heartbeat CPU 0 instructions: 190000003 cycles: 425685472 heartbeat IPC: 0.420319 cumulative IPC: 0.343842 (Simulation time: 0 hr 11 min 18 sec) 
Heartbeat CPU 0 instructions: 200000000 cycles: 462057749 heartbeat IPC: 0.274935 cumulative IPC: 0.338191 (Simulation time: 0 hr 12 min 4 sec) 
Heartbeat CPU 0 instructions: 210000001 cycles: 491562497 heartbeat IPC: 0.338929 cumulative IPC: 0.338237 (Simulation time: 0 hr 12 min 43 sec) 
*** Reached end of trace for Core: 0 Repeating trace: traces/spec2k17/srv_11.champsimtrace.xz
Heartbeat CPU 0 instructions: 220000000 cycles: 515407754 heartbeat IPC: 0.419371 cumulative IPC: 0.342131 (Simulation time: 0 hr 13 min 16 sec) 
Heartbeat CPU 0 instructions: 230000000 cycles: 550520014 heartbeat IPC: 0.284801 cumulative IPC: 0.338347 (Simulation time: 0 hr 14 min 1 sec) 
Heartbeat CPU 0 instructions: 240000002 cycles: 581237362 heartbeat IPC: 0.325549 cumulative IPC: 0.337648 (Simulation time: 0 hr 14 min 42 sec) 
*** Reached end of trace for Core: 0 Repeating trace: traces/spec2k17/srv_11.champsimtrace.xz
Heartbeat CPU 0 instructions: 250000002 cycles: 605065086 heartbeat IPC: 0.419679 cumulative IPC: 0.340981 (Simulation time: 0 hr 15 min 15 sec) 
Finished CPU 0 instructions: 200000002 cycles: 586543513 cumulative IPC: 0.340981 (Simulation time: 0 hr 15 min 15 sec) 

ChampSim completed all CPUs

Region of Interest Statistics

CPU 0 cumulative IPC: 0.340981 instructions: 200000002 cycles: 586543513
ITLB TOTAL     ACCESS:   37990627  HIT:   37451150  MISS:     539477  HIT %:      98.58  MISS %:    1.42003   MPKI: 2.69738
ITLB LOAD TRANSLATION ACCESS:   37990627  HIT:   37451150  MISS:     539477  HIT %:      98.58  MISS %:    1.42003   MPKI: 2.69738
ITLB PREFETCH  REQUESTED:          0  ISSUED:          0  USEFUL:          0  USELESS:          0
ITLB USEFUL LOAD PREFETCHES:          0 PREFETCH ISSUED TO LOWER LEVEL:          0  ACCURACY: -nan
ITLB TIMELY PREFETCHES:          0 LATE PREFETCHES: 0 DROPPED PREFETCHES: 0
ITLB PREFETCHES SAME FILL-ORIGIN LEVEL: 0 DIFFERENT FILL-ORIGIN LEVEL: 0
ITLB AVERAGE MISS LATENCY: 16.5609 cycles
ITLB RQ	ACCESS:   43894352	FORWARD:          0	MERGED:    5775094	TO_CACHE:   38119258

DTLB TOTAL     ACCESS:   44117654  HIT:   35121002  MISS:    8996652  HIT %:    79.6076  MISS %:    20.3924   MPKI: 44.9833
DTLB LOAD TRANSLATION ACCESS:   44117654  HIT:   35121002  MISS:    8996652  HIT %:    79.6076  MISS %:    20.3924   MPKI: 44.9833
DTLB PREFETCH  REQUESTED:          0  ISSUED:          0  USEFUL:          0  USELESS:          0
DTLB USEFUL LOAD PREFETCHES:          0 PREFETCH ISSUED TO LOWER LEVEL:          0  ACCURACY: -nan
DTLB TIMELY PREFETCHES:          0 LATE PREFETCHES: 0 DROPPED PREFETCHES: 0
DTLB PREFETCHES SAME FILL-ORIGIN LEVEL: 0 DIFFERENT FILL-ORIGIN LEVEL: 0
DTLB AVERAGE MISS LATENCY: 10.0232 cycles
DTLB RQ	ACCESS:   59141758	FORWARD:          0	MERGED:   14813090	TO_CACHE:   44328668

STLB TOTAL     ACCESS:   40787654  HIT:   40471506  MISS:     316148  HIT %:    99.2249  MISS %:   0.775107   MPKI: 1.58074
STLB LOAD TRANSLATION ACCESS:    9536129  HIT:    9228817  MISS:     307312  HIT %:    96.7774  MISS %:    3.22261   MPKI: 1.53656
STLB TRANSLATION FROM L1D PREFETCHER ACCESS:   31251525  HIT:   31242689  MISS:       8836  HIT %:    99.9717  MISS %:  0.0282738   MPKI: 0.04418
STLB PREFETCH  REQUESTED:          0  ISSUED:          0  USEFUL:       8400  USELESS:        436
STLB USEFUL LOAD PREFETCHES:       8400 PREFETCH ISSUED TO LOWER LEVEL:          0  ACCURACY: inf
STLB TIMELY PREFETCHES:       8400 LATE PREFETCHES: 270 DROPPED PREFETCHES: 280416
STLB PREFETCHES SAME FILL-ORIGIN LEVEL: 0 DIFFERENT FILL-ORIGIN LEVEL: 0
STLB AVERAGE MISS LATENCY: 3778.42 cycles
STLB RQ	ACCESS:   50151032	FORWARD:          0	MERGED:    9015831	TO_CACHE:   41135201

STLB Hit, L1D data hit: 0
STLB Hit, L2C data hit: 0
STLB Hit, LLC data hit: 0
STLB Hit, LLC data miss: 0
STLB STLB hints to L2: 0
L1D TOTAL     ACCESS:   98539262  HIT:   72274223  MISS:   26265039  HIT %:    73.3456  MISS %:    26.6544   MPKI: 131.325
L1D LOAD      ACCESS:   41228008  HIT:   28150955  MISS:   13077053  HIT %:    68.2811  MISS %:    31.7189   MPKI: 65.3853
L1D RFO       ACCESS:   17355422  HIT:   16886608  MISS:     468814  HIT %:    97.2987  MISS %:    2.70125   MPKI: 2.34407
L1D PREFETCH  ACCESS:   39955832  HIT:   27236660  MISS:   12719172  HIT %:    68.1669  MISS %:    31.8331   MPKI: 63.5959
AGUS PREFETCH L1 MISS: 0
L1D PREFETCH  REQUESTED:   81907613  ISSUED:   81906591  USEFUL:     334369  USELESS:   12384623
L1D USEFUL LOAD PREFETCHES:     334369 PREFETCH ISSUED TO LOWER LEVEL:   12751990  ACCURACY: 2.62209
L1D TIMELY PREFETCHES:     334369 LATE PREFETCHES: 32192 DROPPED PREFETCHES: 436436
L1D PREFETCHES SAME FILL-ORIGIN LEVEL: 12751990 DIFFERENT FILL-ORIGIN LEVEL: 0
L1D AVERAGE MISS LATENCY: 384805 cycles
L1D RQ	ACCESS:   54137320	FORWARD:          0	MERGED:   12676705	TO_CACHE:   41292710
L1D WQ	ACCESS:   18064452	FORWARD:     170475	MERGED:     215404	TO_CACHE:   17849048
L1D PQ	ACCESS:   41291688	FORWARD:          0	MERGED:     674215	TO_CACHE:   40614903

L1D UNIQUE REGIONS ACCESSED: 0
L1D REGIONS CONFLICTS: 0
L1D Cross Page Prefetch Requests: 2234298
L1D Same Page Prefetch Requests: 48882932
L1D ROI Sum of L1D PQ occupancy: 537466866
L1D PREFETCHES PUSHED FROM L2C: 0
L1I TOTAL     ACCESS:   42776902  HIT:   39354760  MISS:    3422142  HIT %:         92  MISS %:    7.99998   MPKI: 17.1107
L1I LOAD      ACCESS:   42776902  HIT:   39354760  MISS:    3422142  HIT %:         92  MISS %:    7.99998   MPKI: 17.1107
L1I PREFETCH  REQUESTED:          0  ISSUED:          0  USEFUL:          0  USELESS:          0
L1I USEFUL LOAD PREFETCHES:          0 PREFETCH ISSUED TO LOWER LEVEL:          0  ACCURACY: -nan
L1I TIMELY PREFETCHES:          0 LATE PREFETCHES: 0 DROPPED PREFETCHES: 0
L1I PREFETCHES SAME FILL-ORIGIN LEVEL: 0 DIFFERENT FILL-ORIGIN LEVEL: 0
L1I AVERAGE MISS LATENCY: 30.3862 cycles
L1I RQ	ACCESS:   65987495	FORWARD:          0	MERGED:   22093143	TO_CACHE:   43894352

BTB TOTAL     ACCESS:   33562539  HIT:   29061289  MISS:    4501250  HIT %:    86.5885  MISS %:    13.4115   MPKI: 22.5062
BTB BRANCH_DIRECT_JUMP	ACCESS:    1685269  HIT:    1483558  MISS:     201711
BTB BRANCH_INDIRECT	ACCESS:   19828015  HIT:   17476346  MISS:    2351669
BTB BRANCH_CONDITIONAL	ACCESS:    4608066  HIT:    4287796  MISS:     320270
BTB BRANCH_DIRECT_CALL	ACCESS:    2993939  HIT:    2599188  MISS:     394751
BTB BRANCH_INDIRECT_CALL	ACCESS:     724221  HIT:     681906  MISS:      42315
BTB BRANCH_RETURN	ACCESS:    3723029  HIT:    2532495  MISS:    1190534
BTB BRANCH_OTHER ACCESS:          0  HIT:          0  MISS:          0

L2C TOTAL     ACCESS:   31512347  HIT:   27973325  MISS:    3539022  HIT %:    88.7694  MISS %:    11.2306   MPKI: 17.6951
L2C LOAD      ACCESS:   16466947  HIT:   14086761  MISS:    2380186  HIT %:    85.5457  MISS %:    14.4543   MPKI: 11.9009
L2C DATA LOAD MPKI: 3.16709
L2C INSTRUCTION LOAD MPKI: 8.73383
L2C RFO       ACCESS:     468181  HIT:     353635  MISS:     114546  HIT %:    75.5338  MISS %:    24.4662   MPKI: 0.57273
L2C PREFETCH  ACCESS:   12751933  HIT:   11910646  MISS:     841287  HIT %:    93.4027  MISS %:    6.59733   MPKI: 4.20643
AGUS PREFETCH L1 MISS: 0
L2C DATA PREFETCH MPKI: 4.20643
L2C INSTRUCTION PREFETCH MPKI: 0
L2C WRITEBACK ACCESS:    1035952  HIT:    1005831  MISS:      30121  HIT %:    97.0924  MISS %:    2.90757   MPKI: 0.150605
L2C LOAD TRANSLATION ACCESS:     389546  HIT:     222922  MISS:     166624  HIT %:    57.2261  MISS %:    42.7739   MPKI: 0.83312
L2C TRANSLATION FROM L1D PREFETCHER ACCESS:     399788  HIT:     393530  MISS:       6258  HIT %:    98.4347  MISS %:    1.56533   MPKI: 0.03129
L2C PREFETCH  REQUESTED:          0  ISSUED:          0  USEFUL:      41841  USELESS:     805587
L2C USEFUL LOAD PREFETCHES:      41841 PREFETCH ISSUED TO LOWER LEVEL:     841287  ACCURACY: 4.97345
L2C TIMELY PREFETCHES:      41841 LATE PREFETCHES: 0 DROPPED PREFETCHES: 0
L2C PREFETCHES SAME FILL-ORIGIN LEVEL: 0 DIFFERENT FILL-ORIGIN LEVEL: 0
L2C AVERAGE MISS LATENCY: 41.3795 cycles
L2C RQ	ACCESS:   17724525	FORWARD:          0	MERGED:          0	TO_CACHE:   17724462
L2C WQ	ACCESS:    1035952	FORWARD:        120	MERGED:          0	TO_CACHE:    1035952
L2C PQ	ACCESS:   12751990	FORWARD:          0	MERGED:          0	TO_CACHE:   12751933

L2C Instructions Evicting Data 798526
L2C Translations Evicting Data 78073
L2C Data Evicting Data 730732
L2C Instructions Evicting Instructions 861652
L2C Translations Evicting Instructions 87443
L2C Data Evicting Instructions 781367
L2C Instructions Evicting Translations 86589
L2C Translations Evicting Translations 7366
L2C Data Evicting Translations 77153
L2C Dense regions hint from L2: 0
PSCL5 TOTAL     ACCESS:     596564  HIT:     596564  MISS:          0  HIT %:        100  MISS %:          0   MPKI: 0
PSCL5 LOAD TRANSLATION ACCESS:     307042  HIT:     307042  MISS:          0  HIT %:        100  MISS %:          0   MPKI: 0
PSCL5 TRANSLATION FROM L1D PREFETCHER ACCESS:     289522  HIT:     289522  MISS:          0  HIT %:        100  MISS %:          0   MPKI: 0
PSCL5 PREFETCH  REQUESTED:          0  ISSUED:          0  USEFUL:          0  USELESS:          0
PSCL5 USEFUL LOAD PREFETCHES:          0 PREFETCH ISSUED TO LOWER LEVEL:          0  ACCURACY: -nan
PSCL5 TIMELY PREFETCHES:          0 LATE PREFETCHES: 0 DROPPED PREFETCHES: 0
PSCL5 PREFETCHES SAME FILL-ORIGIN LEVEL: 0 DIFFERENT FILL-ORIGIN LEVEL: 0

PSCL4 TOTAL     ACCESS:     560396  HIT:     559655  MISS:        741  HIT %:    99.8678  MISS %:   0.132228   MPKI: 0.003705
PSCL4 LOAD TRANSLATION ACCESS:     284755  HIT:     284014  MISS:        741  HIT %:    99.7398  MISS %:   0.260224   MPKI: 0.003705
PSCL4 TRANSLATION FROM L1D PREFETCHER ACCESS:     275641  HIT:     275641  MISS:          0  HIT %:        100  MISS %:          0   MPKI: 0
PSCL4 PREFETCH  REQUESTED:          0  ISSUED:          0  USEFUL:          0  USELESS:          0
PSCL4 USEFUL LOAD PREFETCHES:          0 PREFETCH ISSUED TO LOWER LEVEL:          0  ACCURACY: -nan
PSCL4 TIMELY PREFETCHES:          0 LATE PREFETCHES: 0 DROPPED PREFETCHES: 0
PSCL4 PREFETCHES SAME FILL-ORIGIN LEVEL: 0 DIFFERENT FILL-ORIGIN LEVEL: 0

PSCL3 TOTAL     ACCESS:     593050  HIT:     590503  MISS:       2547  HIT %:    99.5705  MISS %:   0.429475   MPKI: 0.012735
PSCL3 LOAD TRANSLATION ACCESS:     304813  HIT:     302266  MISS:       2547  HIT %:    99.1644  MISS %:   0.835594   MPKI: 0.012735
PSCL3 TRANSLATION FROM L1D PREFETCHER ACCESS:     288237  HIT:     288237  MISS:          0  HIT %:        100  MISS %:          0   MPKI: 0
PSCL3 PREFETCH  REQUESTED:          0  ISSUED:          0  USEFUL:          0  USELESS:          0
PSCL3 USEFUL LOAD PREFETCHES:          0 PREFETCH ISSUED TO LOWER LEVEL:          0  ACCURACY: -nan
PSCL3 TIMELY PREFETCHES:          0 LATE PREFETCHES: 0 DROPPED PREFETCHES: 0
PSCL3 PREFETCHES SAME FILL-ORIGIN LEVEL: 0 DIFFERENT FILL-ORIGIN LEVEL: 0

PSCL2 TOTAL     ACCESS:     489207  HIT:     407859  MISS:      81348  HIT %:    83.3715  MISS %:    16.6285   MPKI: 0.40674
PSCL2 LOAD TRANSLATION ACCESS:     308984  HIT:     227636  MISS:      81348  HIT %:    73.6724  MISS %:    26.3276   MPKI: 0.40674
PSCL2 TRANSLATION FROM L1D PREFETCHER ACCESS:     180223  HIT:     180223  MISS:          0  HIT %:        100  MISS %:          0   MPKI: 0
PSCL2 PREFETCH  REQUESTED:          0  ISSUED:          0  USEFUL:          0  USELESS:          0
PSCL2 USEFUL LOAD PREFETCHES:          0 PREFETCH ISSUED TO LOWER LEVEL:          0  ACCURACY: -nan
PSCL2 TIMELY PREFETCHES:          0 LATE PREFETCHES: 0 DROPPED PREFETCHES: 0
PSCL2 PREFETCHES SAME FILL-ORIGIN LEVEL: 0 DIFFERENT FILL-ORIGIN LEVEL: 0

LLC TOTAL     ACCESS:    3879495  HIT:    3622808  MISS:     256687  HIT %:    93.3835  MISS %:    6.61651   MPKI: 1.28343
LLC LOAD      ACCESS:    2380186  HIT:    2309181  MISS:      71005  HIT %:    97.0168  MISS %:    2.98317   MPKI: 0.355025
LLC RFO       ACCESS:     114546  HIT:      87833  MISS:      26713  HIT %:    76.6792  MISS %:    23.3208   MPKI: 0.133565
LLC PREFETCH  ACCESS:     841287  HIT:     691427  MISS:     149860  HIT %:    82.1868  MISS %:    17.8132   MPKI: 0.7493
AGUS PREFETCH L1 MISS: 0
LLC WRITEBACK ACCESS:     370594  HIT:     366588  MISS:       4006  HIT %:     98.919  MISS %:    1.08097   MPKI: 0.02003
LLC LOAD TRANSLATION ACCESS:     166624  HIT:     161772  MISS:       4852  HIT %:    97.0881  MISS %:    2.91195   MPKI: 0.02426
LLC TRANSLATION FROM L1D PREFETCHER ACCESS:       6258  HIT:       6007  MISS:        251  HIT %:    95.9891  MISS %:    4.01087   MPKI: 0.001255
LLC PREFETCH  REQUESTED:          0  ISSUED:          0  USEFUL:       7140  USELESS:     141143
LLC USEFUL LOAD PREFETCHES:       7140 PREFETCH ISSUED TO LOWER LEVEL:     149860  ACCURACY: 4.76445
LLC TIMELY PREFETCHES:       7140 LATE PREFETCHES: 0 DROPPED PREFETCHES: 0
LLC PREFETCHES SAME FILL-ORIGIN LEVEL: 0 DIFFERENT FILL-ORIGIN LEVEL: 0
LLC AVERAGE MISS LATENCY: 160.408 cycles
LLC RQ	ACCESS:    2667614	FORWARD:          0	MERGED:          0	TO_CACHE:    2667614
LLC WQ	ACCESS:     370594	FORWARD:          0	MERGED:          0	TO_CACHE:     370594
LLC PQ	ACCESS:     841287	FORWARD:          0	MERGED:          0	TO_CACHE:     841287

LLC Dense regions hint to LLC: 0

RAW hits: 2155487
Loads Generated: 56292807
Loads sent to L1D: 54137320
Stores Generated: 18064421
Stores sent to L1D: 18064452
Major fault: 0 Minor fault: 4241
Allocated PAGES: 4241
ucb ended
-----------------------------------------------------------------------------------------------------------------------------------------------------------------------------------------------------
Offsets elements: -11131292 -1 2 1 5 -4 11130834 -11131077 11131076 -11177448 26 46345 -2200618644599 15 2200629775926 12 -427 415 -11177714 46372 11131308 -11177680 11177716 -2200629775932 1642 2200618643181 -2200618643180 -2200618643181 2200629774288 -11131107 -2200618644754 2200618598158 -11 -2200618682811 2200618682813 62968 -3 11114747 -11177712 20 62944 -62965 3 62969 -11176984 -57117 56392 62964 -62964 62963 -62966 62967 -62940 11177649 31 -11131308 -46370 62966 -2200618661195 2200618661198 11114523 -11114526 11114746 -11235924 -2 81253 16 11154621 -11154624 11154622 -11154621 11154653 -11154655 -11154620 23545 16362 -39908 -11114716 23059 11154620 33 -11154651 11154619 -11131073 -2200618630169 2200618630170 -46606 11177680 -2200629860491 2200614831582 15028909 11177681 -11154622 11154624 -11154654 -11131076 -23544 39906 -16363 -45874 45876 -45877 -728 728 62238 -62238 -104 104 105 62237 11114744 -11114747 4 62236 -62240 45875 11131107 -11131109 11131309 -11177660 -2200618598167 2200629775860 740 46359 -46359 11176513 -11176526 45880 -236 -46372 4096 -49740 37 45607 -45598 45834 -45864 -2200618568601 2200618568585 49740 -49705 49939 11127246 50468 11127212 -11126976 11127011 -11127010 -238 239 -49979 -2200618575798 2200618625782 -2200615022482 2200615022482 -2200615022481 2200615022477 11126739 -11126741 -249 -49703 49695 250 -250 255 -288223780707048057 69 -69 8348325 -8348326 8348324 -8348256 -71 8348327 -33775 406 206 33164 -33383 4895 -4893 33381 288223780698699479 -2200618735796 2637 2200618733159 -49727 49968 -2200618648859 2200618648859 -5 -244 -2200615041114 2200615041111 -288223780698733380 -5792506 5792774 -30 4758 -3524 -8316079 8474239 -8474309 2522171 -2258208 8050714 4996 -8055710 -4914 -8314758 8314555 -8314555 8315161 4812 -8319970 2522173 -6 5796886 -8319039 2460232 5854426 82 4914 -4510 -607 5419 -8319971 2522168 10 -10 -4398021409666 4398021409666 -2522164 8319968 -8319968 -4397629435411 -2621905 -386830122 389424846 4397637937332 -4397637910182 -29930 130410470 -130410470 -439581 -2134279 -18084 133002418 -132984334 4397640513972 -4397507529634 4397507529634 -133002421 18084 132984329 -133002413 4397635771130 -4397635771131 -133002422 133002422 4397502768709 -3713817 8474742 -4397637910151 -2621904 4397634579480 -4397634579478 4397632057312 6870460 -6870460 -4397638927774 4397632057314 -4397632039230 4397632039229 6870497 -4397636305937 4397637910182 -8474740 -4397629465372 4397637940112 -4397637940112 4397637785119 145512 22650 -22337 17361 -8482933 4397629435411 -4397629462592 27181 -469482 469482 4397629435412 8474739 -8474738 -4397629435413 -469543 4397629904956 7217411 -4397637122367 469543 -27181 -442300 442325 -513638 513638 -442418 442418 -513637 71223 442413 -442405 -71231 513635 -442400 -71235 4397629976203 -4397636679980 27156 -469551 -71253 513623 -389424800 388982501 13 -56287 -388926258 389144395 -389144400 4398027352687 22649 -4976 -163185 145824 -8465572 2522165 -4397634579477 2621901 27150 29930 -389451874 389421944 2134279 132984330 18083 132984334 -133002417 133002421 -8474742 -4397499054892 -4760925 -132991939 -10474 133002417 -132991947 132991947 4760925 -4397640521581 -22053 133013992 -133014000 133014000 11579 -5952575 4397638927771 -6870461 6870461 -4397638939353 4397634591065 4348266 -4397636276279 4397629405842 8474740 -4398027362131 4398021409565 5792496 404 -5792385 5797804 -8319972 8314823 -5792648 5796880 -4397637724896 4397637724904 -5796888 -5796873 5792620 -5792619 -2355508 8181649 -33411 6416 -5182 -1204 159364 -8474239 2522105 5521821 275759 145511 312 22337 -8482940 8314675 -5797800 270968 -8314896 8348256 -8348324 -5826151 275679 -4729 -8314944 8348323 -8348323 -8348255 8348255 288223780698699478 2200618735796 -288223780707047801 288223780707048051 -2200618733409 -23 2200618733421 -239 -49956 49706 49964 8 2200618648615 -2200614972533 -288221580083677241 288223780698699717 238 -49739 -2200614972499 2200615022238 242 -11126738 -11126980 -2200618648695 2200618648932 11127010 -2200618648931 2200618648937 -242 -49717 49717 11126981 -11176705 11176705 -11126739 11126740 -622080 622080 517120 -517120 99328 11027428 -17 -11749843 623104 -4090 4097 11126743 -11126744 -4096 11130835 -11126737 -243 -622863 573123 11176711 -11130852 3854 -2200618648680 -15 2200629775953 -12 -415 381 -2200629775896 2200618598944 11176988 -11127248 -2200618647042 -2200629775861 1572 2200618597314 -2200618683541 2200618745781 -62237 -62236 -125 -57116 119357 -62234 11176981 -11114745 62235 62239 -62212 -31 11114710 -11127212 11127248 -11235926 -2200618540018 2200618621271 11154450 -11154434 -11114713 11176984 11154617 -11154618 11154651 -2200629761278 2200618606623 -3874289 15028908 -11126977 -49976 11176952 2200629860491 -11176953 22331 -11114714 -62239 -102 50076 -50077 62342 -62342 -416 416 62341 506687 10608057 -11177089 62340 -62344 11177088 -11127013 -49974 11127213 -11176932 -2200618598895 -11176986 -92 49727 -49831 -13 117 -11126786 -49807 67 -6400 -43398 -2200618568631 2200618568497 -16 43444 -43409 43407 236 11133410 43340 11133612 -11133375 11133409 -2200629752785 2200618619138 -43683 43688 -2200615038407 2200615038408 -2200615038408 11133139 -11133139 11133141 -11133140 -11133136 -43407 43399 -288223780707025204 8331860 -8331861 8331859 -8331791 -70 8298168 33694 -33082 -206 33289 -8331860 -33302 33300 288223780698693160 -2200618729396 2200618726759 -43431 43431 244 -2200618642459 2200618642459 -2200615036118 2200615035874 -288223780698726742 30 -268 1472 3524 154636 -8187322 -270533 8298223 -5117 607 -8298778 8303589 -8303590 247386 23216 7 -270605 8302669 -8032070 -270585 8298274 -5854484 5859398 -8298775 8303588 -8032988 -4398019174482 4398019174492 8032978 -8303584 -4398018903822 389452022 -2611425 4397640521581 -4397637937332 130380540 -7609 7609 132991943 4397507529638 132991939 -132984329 132984337 -132991943 4397635760656 -4397502768709 -3697433 -4397629451799 -2611424 4397632333822 -4397632333819 4397638917318 -4397638917321 4397638917321 -6854097 -4397632055614 2603789 4397636305937 -4397636335867 4397637940111 -4397637940111 29929 4397629481756 8458356 -154992 -8466550 7201029 -7201029 -4397629451801 4397629451802 8458354 27175 -469477 -61 442362 513637 -71224 513636 71235 442400 -513635 71239 442395 -513648 71337 4397629921264 7201027 -4397636652829 -27176 -56274 218137 -218137 -389144395 4398027207176 17673 -8466549 270597 8178591 -4397637923325 -2611422 2584246 -2134280 -132984338 -7608 132991946 -4397635753046 4397640513971 -4397640513971 -29663 -132991938 -22054 4397640543634 -4397507529638 -133013992 22054 133002420 -3426834 8187759 -4397640521578 -6854098 6854098 -4397638939374 4397638939331 -6583450 -270603 389481555 4397629692826 8027680 203 -8027772 8032988 -4812 -337 -8027832 8032072 -8 -8032064 8027804 -8027803 -4397629692834 4397637724890 -4113 143935 -145511 -117022 134694 -155113 -11679 149430 -13607 -8457855 270537 7756984 -8027589 8298291 -203 -8032984 270989 -8298512 8331791 -8061254 275700 33298 -8331858 8331858 -8331790 288223780707024950 2200618729396 -288223780707025017 288223780707025267 -2200618727009 2200618726782 -43660 43410 -2200618598784 43647 -2200615038164 -288221580083654996 -43443 -2200614994721 2200615038406 11133138 -11133138 -11133381 11133380 -2200618642537 2200629775676 -241 265 -11133404 -11176801 -7 -572010 1139200 10609619 -11027411 -105728 11133156 -11133156 6404 -11133144 2308 -2309 -11133380 243 2302 -45989 6641 -4095 -45990 -573046 11749860 261 -2200629775511 2200629775941 -34 -11177056 11133648 2200618640877 -2200618642449 -2200629774289 2200618640878 -43668 -2200618683440 -62338 -62341 -18 62759 -119354 57016 62338 -62343 62344 27 11177056 -11177054 43442 18900 -2200618661197 2200629775943 11235703 -11154450 21240 11133379 21242 18666 22433 36 -11133413 11133381 -11177059 11177060 -2200629860495 -2200629761243 2200629761244 -15028910 3851853 22435 -18667 -44090 44093 -44094 417 62758 -62757 569448 -506687 -62761 569132 10608369 -62760 44090 11133411 -43678 11177057 -11177036 43423 -2200618642214 -11177494 -403 11177033 -11177046 43860 -43860 7936 -51759 43823 -43814 -2200618568065 2200618568100 51760 379 11177090 35 -11125475 -2200618627074 2200618627313 -51796 52040 -2200615029681 2200615029681 -2200615029682 2200615029682 11125203 -11125204 249 -52009 52006 -288223780698701266 -8364643 8364711 8364714 -33778 612 33373 -33386 33384 288223780698701012 -2200618737332 2200618734695 -51783 52027 -2200618650395 2200618650395 11 -2200615046109 2200615046109 -288223780698734916 -5792474 5797470 -4758 1204 158160 -8490623 280281 -280352 8331061 -121 -8331142 2538585 -2258236 8055706 302 -8331542 8335437 -5796848 5792473 -8336038 8330922 -8330936 8331543 -8331544 8336356 -5797772 -4398021409698 4398021409708 5797772 -7914512 -421840 -4398018871054 389452020 -2603814 132984338 4397635753047 -3730201 8491126 -4397637910158 -2603813 4397634561428 -2538582 -4397632022843 4397636775447 1604245 4397629448988 6891047 1445085 -4397637785120 4397637930631 -4397637930630 4977 -8504293 -4397629419034 4397629419034 -4397629446208 -442301 469475 4397629419035 8491123 -8491122 7233795 -4397636652831 4397629419036 -4397629888572 469536 -27174 71220 71224 4397629446185 -4397637193617 540784 -469554 -388982420 388911191 -14 71248 442375 -498573 56203 84 161863 -145512 168161 -8499317 2538581 -4397634561426 2603811 -130410469 2573860 130410473 -4397638379692 130850058 -4397635782709 132984333 -132991942 -132991946 -4397635771129 10474 133002412 -132984337 4397635753046 -5952543 -4397634561425 4397638909723 -6886881 -4397632030454 4397634569043 -4398021409594 4398025757886 -4397636276325 4397629389446 6886864 1604260 -5952534 5792474 270 4847 3895 -4253 5170 -909 -5796856 5799113 -6416 -4397637720771 4397629572509 8181647 -32180 3606 -8630 13607 -8504230 8481580 -8481648 2538589 5943372 -421580 270678 -5792349 5797466 -4709 199 -8331479 8336291 28352 -304328 -5521792 -2538589 -28654 33382 -304329 304328 -8364709 8364710 8364643 8364642 2200618737332 -288223780707065721 288223780707065971 -2200618734945 -52012 -2200618682956 2200618734718 2200618650151 -51761 -2200614977677 -288221580083671574 52003 -52036 52037 -2200615029680 2200626154883 -11125202 -11125444 -2200618650473 2200618598458 11177218 -266 -2200629775675 2200618650231 241 -52021 52022 -11125203 -623616 -417792 -2303 2304 6400 1536 -237 -2200618650459 2200618650454 -52034 -2200618598462 150 -232 -11177240 51796 11125712 -2200629774290 -1642 2200618598366 -2200618683019 2200618683021 62760 62757 -62758 569449 -569447 -21 62761 -62754 -56600 119356 -62755 62754 -62759 -29 -11125676 11177504 -11125441 -52030 -2200618583770 2200618583771 11177472 -15028909 15028910 -2200629860492 2200629860494 -11177475 11177473 11154654 -11154653 506691 -569448 -506690 506690 -312 -506691 -10608057 -506692 -10608056 -517420 11125677 -11177452 -2200618598375 -11177506 569460 51783 517652 10607598 -11177033 -517689 517698 -1142594 624896 -2200618619861 2200618568111 569418 -1142584 1142585 -569485 -573100 248 11750356 -11750572 11750607 -11750607 -1142593 -255 254 -254 -288223780706293302 -73 -4398019018351 4398018295909 8911356 -8911349 722446 7090209 -4397636645895 4397629555686 -4397629889342 -146715 -35862 97217 -97217 -9954 9953 4397630071920 -4397629596462 4397629596460 -4397629562540 -519335 4397630081875 -4397630071922 8343673 -8343671 8188679 -4397638420440 4397638442778 -4397638433739 4397638433738 -8351866 -4397630085938 489474 4397637940135 -4397637897122 4397637742130 8188680 -4397630085940 4397629363488 -4397628722163 4397629444612 -4397629502612 58000 -2727257 4397640515540 -4397637846284 4397629502614 -4397630085939 532288 4397629553645 -722450 -4397628831198 -532291 641325 4397629444614 8343670 -9066121 -4397629363488 4397636830507 -4397636298219 6 -389464636 389481504 4397629536776 -4397632171870 2085932 4397638274617 -4397507459676 4397507454700 -4397632171869 133069038 9 4397498030183 -4397631099237 2085931 -4397631449419 -386846349 386846348 2575803 -2575802 4397638911293 -4397635993136 -8413 8414 -2916590 2908176 7990 -7989 4397628539669 -4397628539669 8413 -423 -2918154 2909743 -424 -7990 4397629262121 -4397629253709 -832226 4397629363483 -4397631449409 4397640360544 -8351868 -722451 4397638911288 -4397636825362 4397637207811 -4397637207810 -4397628873620 151457 -58000 4397629444610 8343674 -1599035 -4398025762854 386846349 2575802 4397629596064 -4397632171867 -4398025757641 389422151 -389422150 389422150 -6739426 4397632171867 -722447 -4397631449420 530248 -530247 530253 4397629555682 133016571 4397499155296 -4397629477783 4397629477784 -4397638429609 4397630085939 4397629553648 -4397629536776 -549162 4397638429609 -4398019018281 4398019018280 -4397630071743 4397630071744 -532289 4397638429610 -4397637897315 -528210 4397630081858 -4397630085937 4062 -4397630085934 -2669255 4397632171864 -4397630071920 9954 475459 -475459 -9953 519334 4397629562540 -4397630081874 4397629359426 7812655 -516233 182577 -85360 -61355 4397636780593 -4397636780593 4397629313611 -4397629349470 35862 4397637984047 -4397637948185 4397633074298 5332144 -8334455 -74 288223780706293376 -2200618112446 2200618112446 1142572 -1142572 -574608 -567718 571402 -21392 563729 205 -1114192 1114192 -1113947 1109029 -469931 -2200618724849 2200606424088 11661659 -2200618025211 2200619168625 -2200619228960 2200606423887 12805071 28 -25 -2200619159214 2200619159220 -1143419 -2200618015991 2200619125023 4918 -4918 -1109029 1113949 1113948 1113739 -1113737 -288223780706293556 -4398019018349 4398018295899 8911346 -8911356 722452 7090210 -7812655 333656 -516232 4397630071918 -4397629974702 439632 4397629596425 -4397630071919 4397629079786 -4397629043924 -45815 -509381 475493 -475494 8082342 -4397636656714 -463589 727129 -768955 -301869 595331 11302915 4397617007915 -4397617059001 4397626394808 -4397638415594 12020785 -11545326 258728 -258729 -8343675 -4397630071921 518536 -43077 -485413 4397636826414 -6744539 4397638415593 8188678 -4397638274616 4397638420128 -4397638416066 4397638416378 43077 11502249 -11286600 130239175 -118952576 -11286597 11292741 -21462 -12040829 4397629384837 -4397629384837 551596 130400392 -130400386 -526151 604050 4397628755336 -4397628833241 -130120106 -389742750 389462469 -549261 581708 -562718 562716 45454 202381 4397629275397 -4397629275395 4397629275395 -4397629302717 -34522 4397636444383 -4397637212083 801482 -178333 -13924 -590237 640880 5475 4397628717149 -4397628716881 11343523 -11399912 -5843 -584393 645524 -666858 666791 -641373 526145 130400386 -130322487 -829542 12061571 -11458186 4397629501552 6744659 -7467099 -4398018295615 4398019018055 8343681 -4398027361718 400922239 -11972460 11972460 -11372450 4397637811928 -8343681 -4397629482590 4397629482590 -4397630104936 4397636849621 -4397636189751 4397629445068 8343679 -4398027361824 4398019018145 -4397629412555 4397629412556 -4397629481796 4397637825474 -4397637839390 33997 4397629461714 -4397629461715 11410583 -11286598 -157981 157982 -157983 14800 -14800 -572549 4397629345811 -4397631449408 2103597 4397638411938 -1604248 -4397636807690 4397630068262 6739430 -4397636235141 4397636240367 -6744654 -4397629337730 -2834132 14125930 -11291798 11291798 -11291799 4397629337728 -4397618045930 -389680206 4398018295492 -4397628833240 -333656 61355 4397636719238 -7466982 -4397628615282 4397637249860 -4397625958062 -389680131 4398022020250 -4398022020250 4398018295410 -8911346 722448 -400972005 389680207 4397629337726 -4397632171859 2680244 -2680244 2648703 4397629523156 -4398019017845 4398018295403 3724837 5182434 -4398027202582 4398019017750 8188917 -5186525 -3002392 -4397618066449 4397626409951 -8343427 8188842 -8188842 -77 288223780706293379 -2200618112441 2200618112441 -567964 3684 -21396 -550003 639096 -639345 639344 -12300752 12300753 -2200618662062 2200618662061 -12190763 -109986 12300749 -639099 37138 -37138 639097 -2200618724847 2200618724848 -12300755 11661664 36199 -36449 2200618085751 639100 -639098 -11661662 11661660 -2200618085546 60334 2200606363552 -2200619159215 2200619159218 -1143659 1143657 -1143657 1143415 22 -2200619154674 2200619154657 18 55524 -1198962 1198962 -1198961 670219 -670221 1143433 -1143441 1143436 -2200619169045 2200619224571 -55546 55545 -1198964 636022 562942 -1199204 1199203 -55548 -2200619159216 2200618015798 1198966 -528716 -670250 1198965 -1198965 1143438 -1143415 -9 19 -2200619168514 2200619168512 -1143440 2200619159236 -20 -2200618010996 2200618011237 -12190764 -109995 109995 -639097 37140 -37386 1142326 -1142325 1142576 -503232 -639094 -4398019017843 4398018295397 -4397629337727 -4397632171858 4397618045929 -4397629166896 4397629889338 -4397629555682 -419016 4397630036053 -4397629337728 -4397618045929 8343678 -8343676 -4397629495713 4397629495712 -4397618051133 4397618051132 -4397618051132 4397618051134 -4397618044989 -6144 -748201 12040944 4397617322545 -4397629363489 12040943 118945099 4397498046329 1053558 -4397618044986 118945103 -118945123 4397616991405 -4397616991405 -6153 -11286599 11292751 4397617322536 12040952 -22795 4397617345330 -4397628773269 -59972 130457258 -56870 4397506286922 -4397636687308 130457262 -2208 2209 -130363301 -16063 130176984 -130363302 186320 -27321 -34539 11269483 4397616370845 -4397627606535 4397636070439 -4397636262689 192249 11258483 -11258483 -192250 11427938 -11427939 4397630843548 5748169 -4397636591719 -536903 4397637128622 -4397636985347 377770 105299 -4081 -101219 4397630944767 -4397630839468 4397628769181 -4397628747635 -2701772 2139242 130934927 4397505837117 4397636235141 -4397636235140 -4397630843549 4397636591718 -5748170 -550107 550108 -4397631396868 4397629326581 -4397628773263 -2676145 2676145 -4397636235142 4397636591719 -4397636505449 -86271 4397629495701 7096018 -4397625140987 -123991 11415788 -20517 15322 4397618051118 8343688 -4397626394807 4397618051119 -722439 -4397617328009 -14121397 4397631449406 -4397631449406 4397638911285 -6739440 6739440 -6739439 6739439 -4397629303452 532 4397629302922 8343686 -4397626388657 4397618044972 6745041 -4397636240745 4397629495704 -4397618067766 4397626411451 -8343684 8343684 -4397626411451 4397636627341 -4397636541071 4397629495705 -4397629303456 4397629303456 -4397618044973 -11257951 11257950 4397626388658 -4397626388659 -6151 11292749 4397617322538 12040950 -12040949 -11990964 130935564 -519917319 4398018295253 130455312 -54920 130455307 -130361345 16063 186318 4397628244775 -4397628244775 33793 4397637647141 -4397638379623 732483 -732481 4397630035934 -4397630035936 -2135913 4397632171849 -4397630069037 12024064 118950686 -130237285 -389679916 519917201 8343689 -400966518 386845789 4397632171848 -4397618050448 -11411264 -2710135 2868395 -2868398 4397632171850 8343687 -4397637646606 -2868930 4397638916891 -4397505845479 4397499100437 3571849 4771838 -8343687 -4397629303453 11258480 -11258479 533 11257947 -11257947 11257945 4397626388662 -4397626388661 -6149 11292746 4397617322541 12040948 -11990961 130935442 -519917198 130455191 -54799 54800 -130361224 -93962 93962 130377288 -130174907 33792 -4397637647139 -732483 4397630035932 -4397630035931 -2135915 2102812 130968600 -130935498 -4397632171846 133071412 -133071411 4397639277326 -4397637154499 4397637154500 -4397639277329 2710138 -2710138 2676146 -578472 578473 -2676147 -2676146 2676148 -4397633519696 2676147 -4397631449405 2103594 4397636807690 -2103597 4397631449408 -4397631449404 4397638911283 -4397638911287 4397632171842 8343693 4397636661148 -4397506260762 -130926549 604062 -4397628552955 -280287 4397506260762 -4397636583249 -604063 806444 -59314 59315 4397629275384 -4397629334699 31993 -2869136 2869137 4397629302705 -2837143 2869138 -2869137 4397633519693 -4397630622869 -2896825 4397633519694 -4397633519693 -1347854 8343694 -4398027361251 4398019017557 -4397632171839 4397632171840 -4397638363201 4397629297074 722435 -722435 -4397628580269 -2869134 2869134 27687 4397628552582 -4397631449402 2896819 -2896823 2896823 4397636014459 -6739444 -4397632171844 4397632171844 4397631449409 -4397631449401 4397639277320 -7105484 -4397630032598 4397637162547 -4397636726862 -2574929 -476010 -2200136 5782095 -4397637019272 492900 4397636611732 -4397636609861 18189 -18188 130382477 -130364288 -18189 18190 4397636591671 -4397636591673 4397629461721 -4397632171842 4397632171839 8343697 -4397640515536 4397640515536 -9066127 4397631449401 -4397631449400 4397632171830 6739449 -4397638911288 -1347858 -4397631449399 2676137 4397629495693 6739448 -6739448 -4397632171840 4397631449402 -4397632171829 2676139 -2676140 4397632171833 -4397629495694 4397629495692 -4397632171833 2676140 -4398019017484 4398018295062 8906048 -8906544 8905937 -8183509 8188626 -8188624 8188926 -5100 -126 -4397640355530 4397640359756 -2358 -1663 -6836046 -4397500534883 4397498464595 2070288 -1347817 -43 475575 7708054 -8905937 -4398018294988 4398018294978 722431 8188924 -8188924 -722431 4397638911277 -4397632171832 -6739447 8343695 -1213744 -7129950 -4397629461723 4397636591673 -4397636591672 4397629461722 4397630843549 130395087 -133071234 130395088 -130395088 -2070288 -4397631449398 -7461879 -4397631449397 4397638911276 -6739445 -4397636788460 4397630049016 6739444 6739445 133059021 4397499112817 -4397618044969 4397624784414 -4397624784413 4397625150454 -4397625156603 4397618051114 671 4397618050444 -4397629303447 4397636042891 -4397636042357 4397629302913 6745047 -6745045 8343690 4397502672286 -8343690 -4397629303449 11258477 -11257943 11257942 4397626388663 -4397626388664 4397617322543 -4397628858273 -2591124 2591124 -526556 4397629384834 4397636620143 -4397506219751 77899 4397628552955 -4397629208239 374998 4397636620137 -4397637146300 -699903 699904 8343692 -1279219 -7786902 -419623 497522 4397506219751 4397629477764 -4397628552949 4397637619076 -8343692 -4397629275383 -2896448 4397631449396 -4397631449396 4397638911275 -4397636846706 4397629384827 7461879 -4397638911274 4397638911274 -4397636775371 4397638379619 -4397640529511 2149892 4397636779542 -4397638929432 2078554 -71337 4397636846679 -4397636775342 4397629593642 -4397630035941 4397638379631 534 -534 -389714235 389714232 -389714576 389714576 747 -746 4397628581021 -4397628580274 4397636082222 -6744979 8343691 -4398019017685 4398019017687 -389714578 389715112 -535 746 4397628581020 1598712 -722437 -4397628581019 -533 745 -6744970 8343682 -8343680 8343680 -8343678 8343676 -4397626388667 4397618044991 4397625116976 -4397625110832 11292742 118945114 4397498046251 9397301 -4397626388666 -118945099 4397498046294 -4397616991417 12040953 -12040952 118945019 -118945018 4397626388656 4397617013975 -4397498044628 -118969347 118969351 4397497401501 -4397616370860 22794 4397626388659 -748202 12040951 -4397617322538 -12040951 12040949 4397638379623 -4397507444059 4397499100375 -4397630035939 11990963 -12040948 12040947 118945024 -118945023 4397616991185 9397476 -4397638379622 -130935442 130935446 -118944493 4397616986869 -4397616986870 4397626388664 -4397617322542 -11535737 4397637171736 -280286 -4397636542238 -604062 806443 4397629275387 4397629252858 -4397628755336 -77905 280286 -280280 -8343688 -4397617323478 -14125917 4397631449395 -4397631449394 133074329 4397505836944 4397636846706 4397629313492 4397638911273 -4397638911276 2064569 4397630107268 -8343686 -8343685 8343685 -8343682 -4397626388665 -6145 -6143 11286598 6145 -4397626388662 -6147 4397617322542 12040946 -11990958 130935539 -130935539 11990957 -6150 4397617322540 -11990963 130935575 -130935575 130935579 -118944623 118944623 -118944622 -4397626388658 -6152 4397617322537 -335085 -4397629028404 130935586 -130935586 130935590 -118944626 118944630 -118944639 4397626388666 -4397507444027 118944640 -118950784 6144 -4397628615288 4397628280202 -4397616987460 -12040944 -4397616991428 -118945102 118945113 -118951259 118951259 -130237857 130237857 -118951260 4397617328690 -4397498377430 -130986059 748200 130237863 -130237862 4397628284129 -4397616992331 -5203 11286599 4397629337724 -8343683 8343683 -8343679 -8343677 -4397618066452 4397618066452 -4397629491773 11446783 4397618044992 8343675 -4397637681408 4397629337733 4397630085936 -8343674 -4397637897058 4397637742066 8334191 4397629363489 4397632171869 4397629553644 -4397629553648 -532290 549162 -389481504 4397630071743 8343671 -8343670 532287 4397630085937 -4397630081875 4397638270554 -8351869 2099944 4397628840092 4397637162128 -4397636979551 4397637984048 -4397637984047 288223780706293302 567964 574608 -1113944 1109027 12805073 2200619168623 -24 21 -2200619159239 2200619159234 23 -2200618015993 2200618015992 1109032 1113946 -4398018295899 -8188904 4397630036057 4397629562538 -4397629596460 4397629596462 4397630071922 -4397638270554 4397638416065 4976 -4977 43013 4397637897122 -8351865 17672 -8356842 -388932342 -4397638429610 4397630085940 -4397629363487 
Potential of Offsets elements: 28.8225 280.671 831.823 1729.64 366.823 383.823 28.8225 28.8225 28.8225 28.8225 28.8225 28.8225 28.8225 57.8225 28.8225 64.8225 34.8225 96.8225 82.8225 28.8225 28.8225 28.8225 28.8225 28.8225 28.8225 28.8225 28.8225 28.8225 28.8225 28.8225 28.8225 28.8225 917.823 28.8225 28.8225 28.8225 1118.82 28.8225 28.8225 43.8225 28.8225 28.8225 1732.09 28.8225 28.8225 28.8225 28.8225 28.8225 28.8225 28.8225 28.8225 28.8225 28.8225 28.8225 644.823 28.8225 28.8225 28.8225 28.8225 28.8225 28.8225 28.8225 28.8225 28.8225 1407.82 28.8225 44.8225 128.823 64.8225 28.8225 28.8225 28.8225 28.8225 28.8225 28.8225 28.8225 28.8225 28.8225 28.8225 28.8225 28.8225 28.8225 28.8225 28.8225 28.8225 28.8225 28.8225 52.8225 28.8225 28.8225 28.8225 28.8225 28.8225 28.8225 28.8225 28.8225 28.8225 28.8225 28.8225 28.8225 28.8225 28.8225 28.8225 28.8225 28.8225 28.8225 29.8225 28.8225 28.8225 28.8225 28.8225 28.8225 599.823 28.8225 28.8225 28.8225 28.8225 28.8225 88.8225 28.8225 28.8225 28.8225 28.8225 28.8225 28.8225 28.8225 28.8225 28.8225 28.8225 28.8225 28.8225 28.8225 338.823 28.8225 28.8225 29.8225 28.8225 28.8225 28.8225 28.8225 28.8225 28.8225 28.8225 28.8225 28.8225 28.8225 28.8225 28.8225 28.8225 28.8225 28.8225 28.8225 28.8225 28.8225 28.8225 28.8225 28.8225 28.8225 28.8225 48.8225 28.8225 28.8225 60.8225 76.8225 37.8225 28.8225 33.8225 34.8225 28.8225 28.8225 28.8225 28.8225 36.8225 28.8225 28.8225 28.8225 28.8225 28.8225 28.8225 28.8225 28.8225 28.8225 28.8225 28.8225 28.8225 28.8225 28.8225 28.8225 28.8225 28.8225 278.823 28.8225 28.8225 28.8225 28.8225 28.8225 28.8225 68.8225 28.8225 36.8225 29.8225 29.8225 28.8225 28.8225 28.8225 28.8225 28.8225 28.8225 44.8225 28.8225 28.8225 28.8225 28.8225 28.8225 28.8225 28.8225 268.823 28.8225 28.8225 28.8225 28.8225 28.8225 28.8225 28.8225 28.8225 28.8225 28.8225 28.8225 34.8225 40.8225 28.8225 28.8225 28.8225 28.8225 28.8225 28.8225 28.8225 28.8225 28.8225 28.8225 28.8225 28.8225 28.8225 28.8225 28.8225 28.8225 28.8225 28.8225 28.8225 28.8225 28.8225 28.8225 28.8225 28.8225 28.8225 28.8225 28.8225 28.8225 28.8225 28.8225 28.8225 28.8225 28.8225 28.8225 28.8225 28.8225 28.8225 28.8225 34.8225 97.8225 28.8225 28.8225 28.8225 28.8225 28.8225 28.8225 28.8225 28.8225 28.8225 28.8225 28.8225 28.8225 29.8225 29.8225 37.8225 28.8225 28.8225 28.8225 28.8225 31.8225 28.8225 28.8225 28.8225 28.8225 28.8225 28.8225 28.8225 28.8225 28.8225 28.8225 28.8225 28.8225 28.8225 28.8225 28.8225 28.8225 28.8225 28.8225 28.8225 28.8225 28.8225 28.8225 28.8225 28.8225 28.8225 28.8225 28.8225 28.8225 28.8225 28.8225 28.8225 28.8225 28.8225 28.8225 28.8225 28.8225 28.8225 28.8225 28.8225 28.8225 34.8225 28.8225 28.8225 32.8225 28.8225 28.8225 28.8225 28.8225 28.8225 28.8225 28.8225 28.8225 28.8225 28.8225 28.8225 28.8225 28.8225 28.8225 28.8225 28.8225 28.8225 28.8225 28.8225 28.8225 28.8225 28.8225 28.8225 28.8225 28.8225 28.8225 28.8225 28.8225 28.8225 28.8225 28.8225 28.8225 28.8225 28.8225 28.8225 28.8225 28.8225 28.8225 28.8225 28.8225 28.8225 28.8225 28.8225 28.8225 29.8225 38.8225 28.8225 28.8225 28.8225 28.8225 28.8225 28.8225 28.8225 28.8225 28.8225 28.8225 28.8225 28.8225 28.8225 28.8225 28.8225 28.8225 28.8225 28.8225 28.8225 48.8225 29.8225 30.8225 28.8225 28.8225 28.8225 28.8225 28.8225 28.8225 28.8225 28.8225 28.8225 28.8225 28.8225 28.8225 28.8225 28.8225 28.8225 28.8225 28.8225 28.8225 28.8225 28.8225 28.8225 423.823 28.8225 28.8225 28.8225 28.8225 28.8225 243.823 28.8225 28.8225 28.8225 28.8225 48.8225 28.8225 28.8225 28.8225 28.8225 28.8225 28.8225 28.8225 35.8225 28.8225 28.8225 28.8225 28.8225 28.8225 28.8225 28.8225 32.8225 28.8225 28.8225 28.8225 28.8225 28.8225 28.8225 28.8225 28.8225 28.8225 64.8225 28.8225 28.8225 91.8225 96.8225 28.8225 28.8225 28.8225 28.8225 28.8225 28.8225 28.8225 28.8225 28.8225 31.8225 28.8225 28.8225 57.8225 28.8225 137.823 34.8225 32.8225 28.8225 28.8225 28.8225 28.8225 28.8225 28.8225 28.8225 28.8225 28.8225 28.8225 28.8225 28.8225 28.8225 28.8225 28.8225 28.8225 28.8225 28.8225 28.8225 28.8225 28.8225 28.8225 28.8225 28.8225 28.8225 28.8225 28.8225 28.8225 28.8225 28.8225 28.8225 28.8225 28.8225 53.8225 28.8225 28.8225 28.8225 28.8225 28.8225 28.8225 28.8225 213.823 31.8225 28.8225 28.8225 28.8225 28.8225 28.8225 28.8225 28.8225 28.8225 28.8225 28.8225 28.8225 28.8225 28.8225 28.8225 28.8225 28.8225 28.8225 28.8225 28.8225 28.8225 28.8225 28.8225 28.8225 28.8225 29.8225 28.8225 28.8225 181.823 28.8225 28.8225 28.8225 28.8225 28.8225 28.8225 28.8225 28.8225 111.823 80.8225 28.8225 28.8225 67.8225 28.8225 28.8225 28.8225 28.8225 28.8225 28.8225 28.8225 28.8225 28.8225 28.8225 28.8225 28.8225 28.8225 28.8225 28.8225 28.8225 28.8225 28.8225 28.8225 28.8225 28.8225 28.8225 28.8225 28.8225 76.8225 28.8225 28.8225 28.8225 40.8225 28.8225 28.8225 28.8225 28.8225 28.8225 28.8225 28.8225 28.8225 28.8225 28.8225 28.8225 28.8225 40.8225 28.8225 28.8225 226.823 28.8225 28.8225 28.8225 28.8225 28.8225 28.8225 28.8225 28.8225 28.8225 28.8225 28.8225 28.8225 28.8225 28.8225 689.823 28.8225 28.8225 28.8225 28.8225 28.8225 28.8225 28.8225 28.8225 28.8225 28.8225 28.8225 28.8225 28.8225 28.8225 28.8225 28.8225 28.8225 28.8225 28.8225 32.8225 28.8225 28.8225 28.8225 28.8225 28.8225 28.8225 28.8225 28.8225 28.8225 28.8225 28.8225 28.8225 28.8225 28.8225 28.8225 28.8225 28.8225 28.8225 28.8225 28.8225 28.8225 28.8225 28.8225 28.8225 28.8225 28.8225 28.8225 28.8225 149.823 28.8225 28.8225 28.8225 28.8225 28.8225 28.8225 28.8225 28.8225 28.8225 28.8225 28.8225 29.8225 28.8225 28.8225 28.8225 28.8225 28.8225 28.8225 28.8225 28.8225 28.8225 28.8225 28.8225 28.8225 28.8225 28.8225 28.8225 28.8225 28.8225 28.8225 28.8225 28.8225 28.8225 28.8225 28.8225 28.8225 28.8225 28.8225 28.8225 28.8225 28.8225 28.8225 28.8225 28.8225 28.8225 28.8225 28.8225 28.8225 28.8225 28.8225 28.8225 28.8225 28.8225 28.8225 28.8225 28.8225 28.8225 28.8225 28.8225 28.8225 28.8225 28.8225 40.8225 32.8225 28.8225 28.8225 28.8225 28.8225 28.8225 28.8225 747.823 28.8225 28.8225 28.8225 28.8225 28.8225 28.8225 28.8225 109.823 28.8225 28.8225 28.8225 28.8225 28.8225 28.8225 28.8225 28.8225 28.8225 28.8225 28.8225 28.8225 28.8225 28.8225 28.8225 28.8225 28.8225 28.8225 28.8225 28.8225 28.8225 28.8225 28.8225 28.8225 28.8225 28.8225 28.8225 28.8225 28.8225 28.8225 28.8225 28.8225 28.8225 28.8225 28.8225 28.8225 28.8225 28.8225 28.8225 28.8225 28.8225 28.8225 28.8225 28.8225 28.8225 28.8225 28.8225 285.823 28.8225 28.8225 28.8225 28.8225 28.8225 28.8225 28.8225 36.8225 28.8225 28.8225 28.8225 28.8225 28.8225 28.8225 28.8225 28.8225 28.8225 28.8225 28.8225 28.8225 28.8225 28.8225 28.8225 28.8225 28.8225 64.8225 28.8225 60.8225 28.8225 28.8225 28.8225 28.8225 28.8225 28.8225 28.8225 28.8225 28.8225 28.8225 28.8225 28.8225 28.8225 174.823 28.8225 28.8225 28.8225 28.8225 28.8225 28.8225 28.8225 28.8225 28.8225 28.8225 28.8225 28.8225 28.8225 28.8225 28.8225 28.8225 28.8225 28.8225 28.8225 28.8225 28.8225 28.8225 28.8225 28.8225 28.8225 28.8225 28.8225 28.8225 38.8225 147.823 28.8225 36.8225 52.8225 69.8225 28.8225 28.8225 28.8225 28.8225 28.8225 28.8225 28.8225 28.8225 28.8225 28.8225 28.8225 28.8225 28.8225 28.8225 28.8225 28.8225 28.8225 28.8225 28.8225 28.8225 28.8225 28.8225 28.8225 28.8225 28.8225 28.8225 28.8225 28.8225 28.8225 28.8225 28.8225 28.8225 28.8225 28.8225 28.8225 28.8225 28.8225 76.8225 28.8225 30.8225 28.8225 28.8225 28.8225 46.8225 28.8225 28.8225 28.8225 28.8225 28.8225 28.8225 28.8225 28.8225 28.8225 28.8225 28.8225 28.8225 49.8225 28.8225 28.8225 28.8225 28.8225 28.8225 28.8225 28.8225 28.8225 28.8225 28.8225 28.8225 28.8225 28.8225 28.8225 28.8225 28.8225 28.8225 41.8225 28.8225 28.8225 28.8225 28.8225 28.8225 28.8225 28.8225 28.8225 28.8225 28.8225 28.8225 28.8225 28.8225 28.8225 28.8225 28.8225 28.8225 28.8225 28.8225 28.8225 28.8225 34.8225 112.823 28.8225 28.8225 28.8225 28.8225 28.8225 28.8225 28.8225 28.8225 28.8225 28.8225 28.8225 28.8225 28.8225 28.8225 28.8225 28.8225 28.8225 28.8225 28.8225 28.8225 28.8225 28.8225 28.8225 28.8225 28.8225 76.8225 28.8225 28.8225 28.8225 28.8225 28.8225 28.8225 28.8225 28.8225 28.8225 28.8225 28.8225 622.823 28.8225 28.8225 28.8225 28.8225 49.8225 28.8225 58.8225 28.8225 28.8225 28.8225 28.8225 28.8225 28.8225 28.8225 28.8225 28.8225 28.8225 28.8225 28.8225 28.8225 28.8225 28.8225 28.8225 28.8225 28.8225 28.8225 28.8225 28.8225 28.8225 28.8225 28.8225 28.8225 28.8225 28.8225 28.8225 28.8225 28.8225 28.8225 28.8225 28.8225 28.8225 28.8225 28.8225 28.8225 28.8225 28.8225 28.8225 28.8225 28.8225 28.8225 28.8225 28.8225 28.8225 28.8225 28.8225 29.8225 28.8225 28.8225 28.8225 28.8225 28.8225 28.8225 28.8225 28.8225 28.8225 28.8225 28.8225 28.8225 28.8225 28.8225 28.8225 28.8225 28.8225 28.8225 28.8225 28.8225 28.8225 28.8225 28.8225 28.8225 28.8225 28.8225 28.8225 28.8225 30.8225 39.8225 28.8225 28.8225 28.8225 28.8225 28.8225 28.8225 28.8225 28.8225 28.8225 28.8225 28.8225 28.8225 28.8225 28.8225 28.8225 28.8225 28.8225 28.8225 28.8225 28.8225 28.8225 28.8225 28.8225 28.8225 28.8225 33.8225 28.8225 28.8225 28.8225 28.8225 28.8225 28.8225 28.8225 28.8225 28.8225 28.8225 106.823 38.8225 28.8225 28.8225 30.8225 30.8225 30.8225 29.8225 28.8225 28.8225 28.8225 28.8225 28.8225 28.8225 28.8225 28.8225 28.8225 28.8225 28.8225 28.8225 28.8225 28.8225 28.8225 28.8225 28.8225 28.8225 28.8225 28.8225 28.8225 28.8225 28.8225 28.8225 28.8225 28.8225 28.8225 28.8225 28.8225 28.8225 28.8225 28.8225 28.8225 201.823 217.823 232.823 28.8225 28.8225 28.8225 28.8225 28.8225 28.8225 28.8225 28.8225 28.8225 28.8225 28.8225 28.8225 28.8225 28.8225 28.8225 28.8225 28.8225 28.8225 28.8225 28.8225 28.8225 28.8225 28.8225 31.8225 28.8225 28.8225 28.8225 28.8225 28.8225 28.8225 28.8225 28.8225 28.8225 37.8225 28.8225 28.8225 28.8225 28.8225 28.8225 28.8225 28.8225 28.8225 28.8225 28.8225 28.8225 28.8225 28.8225 28.8225 28.8225 28.8225 28.8225 28.8225 28.8225 28.8225 28.8225 28.8225 28.8225 28.8225 28.8225 28.8225 28.8225 28.8225 28.8225 28.8225 28.8225 28.8225 28.8225 28.8225 28.8225 28.8225 28.8225 28.8225 28.8225 28.8225 28.8225 28.8225 28.8225 28.8225 28.8225 28.8225 28.8225 78.8225 28.8225 28.8225 28.8225 44.8225 28.8225 28.8225 28.8225 28.8225 28.8225 28.8225 28.8225 289.823 28.8225 28.8225 28.8225 28.8225 28.8225 28.8225 28.8225 28.8225 28.8225 28.8225 238.823 28.8225 28.8225 28.8225 28.8225 28.8225 28.8225 28.8225 28.8225 28.8225 40.8225 28.8225 28.8225 28.8225 28.8225 28.8225 28.8225 39.8225 28.8225 28.8225 28.8225 28.8225 28.8225 28.8225 28.8225 28.8225 28.8225 28.8225 28.8225 28.8225 28.8225 28.8225 28.8225 28.8225 28.8225 28.8225 28.8225 28.8225 28.8225 28.8225 28.8225 28.8225 28.8225 28.8225 28.8225 28.8225 28.8225 28.8225 28.8225 28.8225 28.8225 28.8225 28.8225 28.8225 28.8225 28.8225 28.8225 28.8225 28.8225 28.8225 28.8225 28.8225 28.8225 28.8225 28.8225 28.8225 28.8225 28.8225 28.8225 28.8225 28.8225 28.8225 28.8225 28.8225 35.8225 28.8225 28.8225 28.8225 28.8225 28.8225 28.8225 28.8225 28.8225 28.8225 28.8225 28.8225 28.8225 28.8225 28.8225 28.8225 28.8225 28.8225 28.8225 28.8225 28.8225 28.8225 28.8225 28.8225 28.8225 28.8225 28.8225 28.8225 28.8225 28.8225 28.8225 28.8225 28.8225 28.8225 41.8225 28.8225 28.8225 28.8225 28.8225 28.8225 28.8225 28.8225 28.8225 28.8225 28.8225 28.8225 28.8225 28.8225 28.8225 28.8225 28.8225 28.8225 28.8225 28.8225 28.8225 28.8225 28.8225 28.8225 28.8225 193.823 326.823 28.8225 28.8225 28.8225 28.8225 28.8225 28.8225 28.8225 28.8225 28.8225 28.8225 34.8225 30.8225 28.8225 28.8225 28.8225 29.8225 37.8225 44.8225 64.8225 98.8225 64.8225 70.8225 224.823 68.8225 28.8225 28.8225 218.823 28.8225 28.8225 144.823 100.823 28.8225 28.8225 28.8225 28.8225 28.8225 28.8225 28.8225 31.8225 28.8225 28.8225 28.8225 28.8225 28.8225 196.823 28.8225 28.8225 28.8225 28.8225 105.823 390.823 58.8225 64.8225 184.823 28.8225 46.8225 98.8225 34.8225 28.8225 28.8225 28.8225 28.8225 28.8225 28.8225 28.8225 28.8225 28.8225 28.8225 28.8225 28.8225 28.8225 28.8225 28.8225 28.8225 44.8225 28.8225 43.8225 28.8225 28.8225 28.8225 28.8225 28.8225 28.8225 28.8225 28.8225 28.8225 28.8225 28.8225 28.8225 28.8225 28.8225 28.8225 28.8225 28.8225 28.8225 28.8225 28.8225 28.8225 28.8225 28.8225 28.8225 28.8225 28.8225 28.8225 28.8225 28.8225 28.8225 28.8225 28.8225 28.8225 28.8225 28.8225 28.8225 28.8225 28.8225 28.8225 28.8225 28.8225 28.8225 28.8225 28.8225 28.8225 28.8225 28.8225 28.8225 28.8225 28.8225 28.8225 28.8225 28.8225 28.8225 28.8225 28.8225 28.8225 28.8225 28.8225 28.8225 28.8225 28.8225 28.8225 28.8225 28.8225 457.823 58.8225 28.8225 28.8225 37.8225 28.8225 28.8225 28.8225 28.8225 28.8225 28.8225 28.8225 28.8225 28.8225 28.8225 28.8225 28.8225 28.8225 28.8225 28.8225 28.8225 28.8225 28.8225 28.8225 28.8225 28.8225 28.8225 28.8225 28.8225 28.8225 28.8225 28.8225 28.8225 28.8225 28.8225 28.8225 28.8225 28.8225 28.8225 28.8225 28.8225 28.8225 28.8225 28.8225 28.8225 28.8225 28.8225 28.8225 28.8225 28.8225 28.8225 28.8225 28.8225 28.8225 28.8225 28.8225 28.8225 28.8225 28.8225 28.8225 28.8225 28.8225 28.8225 28.8225 28.8225 28.8225 28.8225 28.8225 28.8225 28.8225 28.8225 28.8225 50.8225 28.8225 28.8225 55.8225 30.8225 28.8225 28.8225 28.8225 28.8225 28.8225 28.8225 28.8225 28.8225 28.8225 28.8225 28.8225 28.8225 28.8225 28.8225 28.8225 28.8225 28.8225 28.8225 28.8225 28.8225 28.8225 28.8225 28.8225 28.8225 28.8225 28.8225 28.8225 28.8225 28.8225 28.8225 28.8225 28.8225 28.8225 28.8225 28.8225 28.8225 57.8225 28.8225 28.8225 66.8225 28.8225 28.8225 28.8225 28.8225 28.8225 28.8225 28.8225 28.8225 28.8225 28.8225 28.8225 28.8225 28.8225 28.8225 28.8225 28.8225 28.8225 28.8225 28.8225 28.8225 28.8225 28.8225 28.8225 28.8225 28.8225 28.8225 28.8225 28.8225 395.823 467.823 28.8225 28.8225 28.8225 28.8225 342.823 28.8225 28.8225 28.8225 28.8225 28.8225 28.8225 28.8225 28.8225 28.8225 28.8225 28.8225 28.8225 28.8225 28.8225 28.8225 28.8225 28.8225 28.8225 28.8225 28.8225 28.8225 28.8225 28.8225 28.8225 28.8225 28.8225 28.8225 28.8225 28.8225 28.8225 28.8225 28.8225 28.8225 28.8225 28.8225 28.8225 28.8225 28.8225 28.8225 28.8225 28.8225 28.8225 28.8225 28.8225 28.8225 28.8225 28.8225 28.8225 28.8225 28.8225 28.8225 28.8225 28.8225 28.8225 28.8225 28.8225 28.8225 28.8225 28.8225 28.8225 28.8225 28.8225 28.8225 28.8225 28.8225 28.8225 28.8225 28.8225 28.8225 28.8225 28.8225 28.8225 28.8225 28.8225 28.8225 28.8225 28.8225 28.8225 28.8225 28.8225 28.8225 28.8225 28.8225 28.8225 28.8225 28.8225 28.8225 28.8225 28.8225 28.8225 40.8225 28.8225 28.8225 28.8225 28.8225 28.8225 28.8225 28.8225 28.8225 28.8225 28.8225 28.8225 28.8225 28.8225 28.8225 28.8225 28.8225 28.8225 28.8225 28.8225 28.8225 28.8225 28.8225 28.8225 28.8225 28.8225 28.8225 28.8225 28.8225 28.8225 28.8225 28.8225 28.8225 28.8225 28.8225 28.8225 28.8225 28.8225 28.8225 28.8225 28.8225 28.8225 28.8225 28.8225 55.8225 82.8225 28.8225 28.8225 28.8225 28.8225 28.8225 28.8225 28.8225 28.8225 28.8225 28.8225 28.8225 28.8225 28.8225 28.8225 28.8225 28.8225 28.8225 28.8225 28.8225 28.8225 28.8225 28.8225 28.8225 28.8225 28.8225 28.8225 28.8225 28.8225 28.8225 28.8225 28.8225 28.8225 28.8225 28.8225 28.8225 28.8225 28.8225 28.8225 28.8225 28.8225 28.8225 28.8225 28.8225 28.8225 28.8225 28.8225 28.8225 28.8225 28.8225 28.8225 28.8225 28.8225 28.8225 28.8225 28.8225 28.8225 28.8225 28.8225 28.8225 28.8225 28.8225 28.8225 28.8225 28.8225 28.8225 28.8225 28.8225 28.8225 28.8225 28.8225 28.8225 28.8225 28.8225 28.8225 28.8225 28.8225 28.8225 28.8225 28.8225 28.8225 28.8225 28.8225 28.8225 28.8225 28.8225 28.8225 29.8225 28.8225 28.8225 28.8225 28.8225 28.8225 28.8225 28.8225 28.8225 28.8225 28.8225 28.8225 28.8225 28.8225 28.8225 28.8225 28.8225 28.8225 28.8225 28.8225 28.8225 28.8225 28.8225 28.8225 28.8225 28.8225 28.8225 28.8225 28.8225 28.8225 28.8225 28.8225 28.8225 28.8225 28.8225 28.8225 28.8225 28.8225 28.8225 28.8225 28.8225 28.8225 28.8225 28.8225 28.8225 28.8225 28.8225 28.8225 28.8225 28.8225 28.8225 28.8225 28.8225 28.8225 28.8225 28.8225 28.8225 28.8225 28.8225 28.8225 28.8225 28.8225 28.8225 28.8225 28.8225 28.8225 28.8225 28.8225 28.8225 28.8225 28.8225 28.8225 28.8225 28.8225 28.8225 28.8225 28.8225 28.8225 28.8225 28.8225 28.8225 28.8225 28.8225 28.8225 28.8225 28.8225 28.8225 28.8225 28.8225 28.8225 28.8225 28.8225 28.8225 28.8225 28.8225 28.8225 28.8225 28.8225 28.8225 28.8225 28.8225 28.8225 28.8225 28.8225 28.8225 28.8225 28.8225 28.8225 28.8225 28.8225 28.8225 28.8225 28.8225 28.8225 28.8225 28.8225 28.8225 28.8225 28.8225 28.8225 28.8225 28.8225 28.8225 28.8225 28.8225 28.8225 28.8225 28.8225 28.8225 28.8225 28.8225 28.8225 28.8225 28.8225 28.8225 28.8225 28.8225 28.8225 28.8225 28.8225 28.8225 28.8225 28.8225 28.8225 28.8225 28.8225 28.8225 28.8225 28.8225 28.8225 28.8225 28.8225 28.8225 28.8225 28.8225 28.8225 28.8225 28.8225 28.8225 28.8225 46.8225 28.8225 28.8225 28.8225 28.8225 28.8225 28.8225 28.8225 28.8225 28.8225 28.8225 28.8225 28.8225 28.8225 28.8225 28.8225 28.8225 28.8225 28.8225 28.8225 28.8225 28.8225 28.8225 28.8225 28.8225 28.8225 28.8225 28.8225 28.8225 28.8225 28.8225 28.8225 28.8225 28.8225 28.8225 28.8225 28.8225 28.8225 28.8225 28.8225 28.8225 28.8225 28.8225 28.8225 28.8225 28.8225 28.8225 28.8225 28.8225 28.8225 28.8225 28.8225 28.8225 28.8225 28.8225 28.8225 28.8225 28.8225 28.8225 28.8225 28.8225 28.8225 28.8225 28.8225 28.8225 28.8225 28.8225 28.8225 28.8225 28.8225 28.8225 28.8225 28.8225 28.8225 28.8225 28.8225 28.8225 28.8225 28.8225 28.8225 28.8225 28.8225 28.8225 28.8225 28.8225 28.8225 28.8225 28.8225 28.8225 28.8225 28.8225 28.8225 28.8225 28.8225 28.8225 28.8225 28.8225 28.8225 28.8225 28.8225 28.8225 28.8225 28.8225 28.8225 28.8225 28.8225 28.8225 28.8225 28.8225 28.8225 28.8225 28.8225 28.8225 28.8225 28.8225 28.8225 28.8225 28.8225 42.8225 28.8225 28.8225 28.8225 28.8225 28.8225 28.8225 28.8225 28.8225 28.8225 28.8225 28.8225 28.8225 28.8225 28.8225 28.8225 28.8225 28.8225 28.8225 29.8225 28.8225 28.8225 28.8225 28.8225 29.8225 28.8225 28.8225 28.8225 28.8225 28.8225 28.8225 28.8225 28.8225 28.8225 28.8225 28.8225 28.8225 28.8225 28.8225 28.8225 28.8225 28.8225 28.8225 28.8225 28.8225 28.8225 28.8225 28.8225 28.8225 28.8225 28.8225 28.8225 28.8225 28.8225 28.8225 28.8225 28.8225 28.8225 28.8225 28.8225 28.8225 28.8225 28.8225 28.8225 28.8225 28.8225 28.8225 28.8225 28.8225 28.8225 28.8225 28.8225 28.8225 28.8225 28.8225 28.8225 28.8225 28.8225 28.8225 28.8225 28.8225 28.8225 28.8225 28.8225 28.8225 28.8225 28.8225 28.8225 28.8225 28.8225 28.8225 28.8225 28.8225 28.8225 28.8225 28.8225 28.8225 28.8225 28.8225 28.8225 28.8225 28.8225 28.8225 28.8225 28.8225 28.8225 28.8225 28.8225 28.8225 28.8225 28.8225 28.8225 28.8225 28.8225 28.8225 28.8225 28.8225 28.8225 28.8225 28.8225 28.8225 28.8225 28.8225 28.8225 28.8225 28.8225 28.8225 28.8225 28.8225 28.8225 28.8225 28.8225 28.8225 28.8225 28.8225 28.8225 28.8225 28.8225 28.8225 28.8225 28.8225 28.8225 28.8225 28.8225 28.8225 28.8225 28.8225 36.8225 28.8225 28.8225 28.8225 28.8225 28.8225 28.8225 28.8225 28.8225 28.8225 28.8225 28.8225 28.8225 28.8225 28.8225 28.8225 28.8225 28.8225 28.8225 28.8225 28.8225 28.8225 28.8225 28.8225 28.8225 28.8225 28.8225 28.8225 28.8225 28.8225 28.8225 28.8225 28.8225 28.8225 28.8225 28.8225 28.8225 28.8225 28.8225 28.8225 28.8225 28.8225 28.8225 28.8225 28.8225 28.8225 28.8225 28.8225 28.8225 28.8225 28.8225 28.8225 28.8225 28.8225 28.8225 28.8225 28.8225 28.8225 28.8225 28.8225 28.8225 28.8225 28.8225 28.8225 28.8225 28.8225 28.8225 28.8225 28.8225 44.8225 40.8225 28.8225 28.8225 46.8225 28.8225 28.8225 28.8225 28.8225 28.8225 28.8225 28.8225 28.8225 28.8225 28.8225 28.8225 28.8225 28.8225 28.8225 28.8225 28.8225 28.8225 28.8225 28.8225 28.8225 28.8225 28.8225 28.8225 28.8225 
rewards of Offsets elements: 0 280 803 1713 338 355 0 0 0 0 0 0 0 29 0 36 6 68 54 0 0 0 0 0 0 0 0 0 0 0 0 0 889 0 0 0 1090 0 0 15 0 0 1732 0 0 0 0 0 0 0 0 0 0 0 616 0 0 0 0 0 0 0 0 0 1379 0 16 100 36 0 0 0 0 0 0 0 0 0 0 0 0 0 0 0 0 0 0 24 0 0 0 0 0 0 0 0 0 0 0 0 0 0 0 0 0 0 1 0 0 0 0 0 571 0 0 0 0 0 60 0 0 0 0 0 0 0 0 0 0 0 0 0 310 0 0 1 0 0 0 0 0 0 0 0 0 0 0 0 0 0 0 0 0 0 0 0 0 0 0 20 0 0 32 48 9 0 5 6 0 0 0 0 8 0 0 0 0 0 0 0 0 0 0 0 0 0 0 0 0 0 250 0 0 0 0 0 0 40 0 8 1 1 0 0 0 0 0 0 16 0 0 0 0 0 0 0 240 0 0 0 0 0 0 0 0 0 0 0 6 12 0 0 0 0 0 0 0 0 0 0 0 0 0 0 0 0 0 0 0 0 0 0 0 0 0 0 0 0 0 0 0 0 0 0 0 0 0 0 6 69 0 0 0 0 0 0 0 0 0 0 0 0 1 1 9 0 0 0 0 3 0 0 0 0 0 0 0 0 0 0 0 0 0 0 0 0 0 0 0 0 0 0 0 0 0 0 0 0 0 0 0 0 0 0 0 0 0 0 0 0 6 0 0 4 0 0 0 0 0 0 0 0 0 0 0 0 0 0 0 0 0 0 0 0 0 0 0 0 0 0 0 0 0 0 0 0 0 0 0 0 0 0 0 0 0 0 0 0 1 10 0 0 0 0 0 0 0 0 0 0 0 0 0 0 0 0 0 0 0 20 1 2 0 0 0 0 0 0 0 0 0 0 0 0 0 0 0 0 0 0 0 0 0 395 0 0 0 0 0 215 0 0 0 0 20 0 0 0 0 0 0 0 7 0 0 0 0 0 0 0 4 0 0 0 0 0 0 0 0 0 36 0 0 63 68 0 0 0 0 0 0 0 0 0 3 0 0 29 0 109 6 4 0 0 0 0 0 0 0 0 0 0 0 0 0 0 0 0 0 0 0 0 0 0 0 0 0 0 0 0 0 0 0 0 0 25 0 0 0 0 0 0 0 185 3 0 0 0 0 0 0 0 0 0 0 0 0 0 0 0 0 0 0 0 0 0 0 0 0 1 0 0 153 0 0 0 0 0 0 0 0 83 52 0 0 39 0 0 0 0 0 0 0 0 0 0 0 0 0 0 0 0 0 0 0 0 0 0 0 0 48 0 0 0 12 0 0 0 0 0 0 0 0 0 0 0 0 12 0 0 198 0 0 0 0 0 0 0 0 0 0 0 0 0 0 661 0 0 0 0 0 0 0 0 0 0 0 0 0 0 0 0 0 0 0 4 0 0 0 0 0 0 0 0 0 0 0 0 0 0 0 0 0 0 0 0 0 0 0 0 0 0 0 0 121 0 0 0 0 0 0 0 0 0 0 0 1 0 0 0 0 0 0 0 0 0 0 0 0 0 0 0 0 0 0 0 0 0 0 0 0 0 0 0 0 0 0 0 0 0 0 0 0 0 0 0 0 0 0 0 0 0 0 0 0 0 0 12 4 0 0 0 0 0 0 719 0 0 0 0 0 0 0 81 0 0 0 0 0 0 0 0 0 0 0 0 0 0 0 0 0 0 0 0 0 0 0 0 0 0 0 0 0 0 0 0 0 0 0 0 0 0 0 0 0 0 0 0 0 0 0 257 0 0 0 0 0 0 0 8 0 0 0 0 0 0 0 0 0 0 0 0 0 0 0 0 0 36 0 32 0 0 0 0 0 0 0 0 0 0 0 0 0 146 0 0 0 0 0 0 0 0 0 0 0 0 0 0 0 0 0 0 0 0 0 0 0 0 0 0 0 0 10 119 0 8 24 41 0 0 0 0 0 0 0 0 0 0 0 0 0 0 0 0 0 0 0 0 0 0 0 0 0 0 0 0 0 0 0 0 0 0 0 0 0 48 0 2 0 0 0 18 0 0 0 0 0 0 0 0 0 0 0 0 21 0 0 0 0 0 0 0 0 0 0 0 0 0 0 0 0 0 13 0 0 0 0 0 0 0 0 0 0 0 0 0 0 0 0 0 0 0 0 0 6 84 0 0 0 0 0 0 0 0 0 0 0 0 0 0 0 0 0 0 0 0 0 0 0 0 0 48 0 0 0 0 0 0 0 0 0 0 0 594 0 0 0 0 21 0 30 0 0 0 0 0 0 0 0 0 0 0 0 0 0 0 0 0 0 0 0 0 0 0 0 0 0 0 0 0 0 0 0 0 0 0 0 0 0 0 0 0 0 0 0 0 0 0 0 1 0 0 0 0 0 0 0 0 0 0 0 0 0 0 0 0 0 0 0 0 0 0 0 0 0 0 0 0 2 11 0 0 0 0 0 0 0 0 0 0 0 0 0 0 0 0 0 0 0 0 0 0 0 0 0 5 0 0 0 0 0 0 0 0 0 0 78 10 0 0 2 2 2 1 0 0 0 0 0 0 0 0 0 0 0 0 0 0 0 0 0 0 0 0 0 0 0 0 0 0 0 0 0 0 0 0 0 173 189 204 0 0 0 0 0 0 0 0 0 0 0 0 0 0 0 0 0 0 0 0 0 0 0 3 0 0 0 0 0 0 0 0 0 9 0 0 0 0 0 0 0 0 0 0 0 0 0 0 0 0 0 0 0 0 0 0 0 0 0 0 0 0 0 0 0 0 0 0 0 0 0 0 0 0 0 0 0 0 0 0 0 50 0 0 0 16 0 0 0 0 0 0 0 261 0 0 0 0 0 0 0 0 0 0 210 0 0 0 0 0 0 0 0 0 12 0 0 0 0 0 0 11 0 0 0 0 0 0 0 0 0 0 0 0 0 0 0 0 0 0 0 0 0 0 0 0 0 0 0 0 0 0 0 0 0 0 0 0 0 0 0 0 0 0 0 0 0 0 0 0 0 0 0 0 0 0 0 0 7 0 0 0 0 0 0 0 0 0 0 0 0 0 0 0 0 0 0 0 0 0 0 0 0 0 0 0 0 0 0 0 0 0 13 0 0 0 0 0 0 0 0 0 0 0 0 0 0 0 0 0 0 0 0 0 0 0 0 165 298 0 0 0 0 0 0 0 0 0 0 6 2 0 0 0 1 9 16 36 70 36 42 196 40 0 0 190 0 0 116 72 0 0 0 0 0 0 0 3 0 0 0 0 0 168 0 0 0 0 77 362 30 36 156 0 18 70 6 0 0 0 0 0 0 0 0 0 0 0 0 0 0 0 0 16 0 15 0 0 0 0 0 0 0 0 0 0 0 0 0 0 0 0 0 0 0 0 0 0 0 0 0 0 0 0 0 0 0 0 0 0 0 0 0 0 0 0 0 0 0 0 0 0 0 0 0 0 0 0 0 0 0 0 0 0 0 0 0 0 0 0 0 429 30 0 0 9 0 0 0 0 0 0 0 0 0 0 0 0 0 0 0 0 0 0 0 0 0 0 0 0 0 0 0 0 0 0 0 0 0 0 0 0 0 0 0 0 0 0 0 0 0 0 0 0 0 0 0 0 0 0 0 0 0 0 0 0 0 0 0 0 0 0 0 22 0 0 27 2 0 0 0 0 0 0 0 0 0 0 0 0 0 0 0 0 0 0 0 0 0 0 0 0 0 0 0 0 0 0 0 0 0 0 0 0 29 0 0 38 0 0 0 0 0 0 0 0 0 0 0 0 0 0 0 0 0 0 0 0 0 0 0 0 0 0 0 0 367 439 0 0 0 0 314 0 0 0 0 0 0 0 0 0 0 0 0 0 0 0 0 0 0 0 0 0 0 0 0 0 0 0 0 0 0 0 0 0 0 0 0 0 0 0 0 0 0 0 0 0 0 0 0 0 0 0 0 0 0 0 0 0 0 0 0 0 0 0 0 0 0 0 0 0 0 0 0 0 0 0 0 0 0 0 0 0 0 0 0 0 0 0 0 0 0 12 0 0 0 0 0 0 0 0 0 0 0 0 0 0 0 0 0 0 0 0 0 0 0 0 0 0 0 0 0 0 0 0 0 0 0 0 0 0 0 0 0 0 0 27 54 0 0 0 0 0 0 0 0 0 0 0 0 0 0 0 0 0 0 0 0 0 0 0 0 0 0 0 0 0 0 0 0 0 0 0 0 0 0 0 0 0 0 0 0 0 0 0 0 0 0 0 0 0 0 0 0 0 0 0 0 0 0 0 0 0 0 0 0 0 0 0 0 0 0 0 0 0 0 0 0 0 0 0 0 0 0 1 0 0 0 0 0 0 0 0 0 0 0 0 0 0 0 0 0 0 0 0 0 0 0 0 0 0 0 0 0 0 0 0 0 0 0 0 0 0 0 0 0 0 0 0 0 0 0 0 0 0 0 0 0 0 0 0 0 0 0 0 0 0 0 0 0 0 0 0 0 0 0 0 0 0 0 0 0 0 0 0 0 0 0 0 0 0 0 0 0 0 0 0 0 0 0 0 0 0 0 0 0 0 0 0 0 0 0 0 0 0 0 0 0 0 0 0 0 0 0 0 0 0 0 0 0 0 0 0 0 0 0 0 0 0 0 0 0 0 0 0 0 0 0 0 0 0 0 0 0 0 0 0 0 0 0 0 0 0 0 18 0 0 0 0 0 0 0 0 0 0 0 0 0 0 0 0 0 0 0 0 0 0 0 0 0 0 0 0 0 0 0 0 0 0 0 0 0 0 0 0 0 0 0 0 0 0 0 0 0 0 0 0 0 0 0 0 0 0 0 0 0 0 0 0 0 0 0 0 0 0 0 0 0 0 0 0 0 0 0 0 0 0 0 0 0 0 0 0 0 0 0 0 0 0 0 0 0 0 0 0 0 0 0 0 0 0 0 0 0 0 0 0 0 0 0 0 0 14 0 0 0 0 0 0 0 0 0 0 0 0 0 0 0 0 0 0 1 0 0 0 0 1 0 0 0 0 0 0 0 0 0 0 0 0 0 0 0 0 0 0 0 0 0 0 0 0 0 0 0 0 0 0 0 0 0 0 0 0 0 0 0 0 0 0 0 0 0 0 0 0 0 0 0 0 0 0 0 0 0 0 0 0 0 0 0 0 0 0 0 0 0 0 0 0 0 0 0 0 0 0 0 0 0 0 0 0 0 0 0 0 0 0 0 0 0 0 0 0 0 0 0 0 0 0 0 0 0 0 0 0 0 0 0 0 0 0 0 0 0 0 0 0 0 0 8 0 0 0 0 0 0 0 0 0 0 0 0 0 0 0 0 0 0 0 0 0 0 0 0 0 0 0 0 0 0 0 0 0 0 0 0 0 0 0 0 0 0 0 0 0 0 0 0 0 0 0 0 0 0 0 0 0 0 0 0 0 0 0 0 0 0 0 0 16 12 0 0 18 0 0 0 0 0 0 0 0 0 0 0 0 0 0 0 0 0 0 0 0 0 0 0 0 Printing Sanity3
offset_index value2458
offset list size2458
reward size2458
potential size2458
-----------------------------------------------------------------------------------------------------------------------------------------------------------------------------------------------------

DRAM Statistics
 CHANNEL 0
 RQ ROW_BUFFER_HIT:      58837  ROW_BUFFER_MISS:     193844
 DBUS_CONGESTED:        100
 WQ ROW_BUFFER_HIT:      18657  ROW_BUFFER_MISS:     129734  FULL:          0

 AVG_CONGESTED_CYCLE: 4
 All warmup complete: 2
Channel 0 Bank busy for read cycles: 0
Channel 0 Bank busy for write cycles: 0
Channel 0
Rank 0
0banks busy for read cycles: 547573319
0banks busy for write cycles: 77825
1banks busy for read cycles: 18365183
1banks busy for write cycles: 10459112
2banks busy for read cycles: 3865918
2banks busy for write cycles: 2466928
3banks busy for read cycles: 644917
3banks busy for write cycles: 824964
4banks busy for read cycles: 328606
4banks busy for write cycles: 448455
5banks busy for read cycles: 123343
5banks busy for write cycles: 286844
6banks busy for read cycles: 80952
6banks busy for write cycles: 214291
7banks busy for read cycles: 66253
7banks busy for write cycles: 226532
8banks busy for read cycles: 148675
8banks busy for write cycles: 341397

CPU 0 Branch Prediction Accuracy: 99.8224% MPKI: 0.38789 Average ROB Occupancy at Mispredict: 26.8787
Branch types
NOT_BRANCH: 156307724 78.1539%
BRANCH_DIRECT_JUMP: 1685269 0.842634%
BRANCH_INDIRECT: 19828015 9.91401%
BRANCH_CONDITIONAL: 14737476 7.36874%
BRANCH_DIRECT_CALL: 2993939 1.49697%
BRANCH_INDIRECT_CALL: 724221 0.36211%
BRANCH_RETURN: 3723029 1.86151%
BRANCH_OTHER: 0 0%

DRAM PAGES: 1048576
Allocated PAGES: 4241
