
*** ChampSim Multicore Out-of-Order Simulator ***

Warmup Instructions: 50000000
Simulation Instructions: 200000000
Number of CPUs: 1
LLC sets: 2048
LLC ways: 16
Off-chip DRAM Size: 4096 MB Channels: 1 Width: 64-bit Data Rate: 6400 MT/s
CPU 0 runs traces/spec2k17/srv_29.champsimtrace.xz
.xz
BTB has LRU replacement policy
ITLB has LRU replacement policy
DTLB has LRU replacement policy
STLB has LRU replacement policy
L1I has LRU replacement policy
L1D has LRU replacement policy
Initialize SRRIP state for L2C
Initialize DRRIP state for LLC
Offsets elements: 
Potential of Offsets elements: 
rewards of Offsets elements: 
Printing Sanity1
offset list size977
Offsets elements: 
Potential of Offsets elements: 
rewards of Offsets elements: 1272 17 34 40 1363 16 5 16 13 0 0 234 24 11 60 722 454 3 2 24 421 221 8 2 2 9 282 263 30 21 34 36 19 18 60 42 39 163 35 65 18 81 648 15 414 111 3 18 50 53 228 46 11 90 271 47 354 75 61 156 20 25 206 132 25 120 135 426 154 220 70 20 40 45 114 158 90 238 294 208 306 80 21 81 0 0 170 27 45 116 0 0 20 18 54 126 49 99 755 160 309 221 130 838 12 24 15 44 39 12 86 34 0 823 0 12 0 0 143 20 0 0 0 0 0 0 0 0 0 0 0 330 320 144 48 76 15 84 84 20 0 0 21 21 112 361 126 234 56 70 2 8 156 126 125 66 56 22 138 0 0 0 120 7 11 120 240 21 24 44 138 582 16 0 0 263 24 68 5 17 36 39 78 52 0 0 0 15 88 0 26 0 48 8 22 10 66 13 2 12 8 12 18 18 8 12 18 2 6 15 15 10 63 3 5 7 6 6 20 9 12 10 18 12 2 15 8 0 24 16 78 25 33 40 617 88 632 0 0 2 353 57 202 6 17 20 139 90 0 11 5 54 6 16 39 100 0 0 0 133 24 0 9 5 46 15 3 0 0 0 0 0 0 0 0 0 0 0 0 9 10 0 0 0 0 0 29 10 0 0 0 31 37 0 0 0 0 223 8 6 266 0 91 180 6 0 81 59 262 23 10 36 21 112 173 117 280 66 300 161 139 0 0 16 12 28 120 44 135 306 0 0 24 25 0 0 0 0 156 0 33 0 0 45 180 272 70 77 92 182 0 54 206 230 165 10 50 40 0 39 0 0 0 85 33 84 60 18 0 81 52 9 132 0 12 50 52 18 16 0 0 0 18 10 8 2 6 132 30 8 16 6 5 12 18 6 1 3 10 9 4 5 6 8 14 7 2 9 13 7 92 0 5 95 36 127 29 0 163 2 8 0 0 0 0 0 1 2 26 14 16 168 0 0 0 0 0 0 0 0 0 0 48 40 28 56 28 12 0 0 0 0 19 58 24 42 0 12 0 0 81 120 60 48 21 72 48 60 60 18 249 0 0 16 9 0 0 0 275 19 20 0 35 92 195 280 100 4 32 50 0 20 95 0 0 0 0 0 0 0 6 20 102 157 206 297 0 0 68 0 0 144 48 96 120 300 18 4 0 0 0 0 0 64 0 290 41 66 0 143 10 21 54 0 22 39 2 3 10 21 20 7 4 10 9 3 4 19 1 549 14 28 220 0 0 235 369 8 354 22 30 5 370 0 0 0 2 16 0 0 0 0 0 6 0 0 0 0 0 0 0 0 0 0 0 0 0 0 0 22 4 40 15 16 27 12 32 14 0 3 37 110 110 0 5 0 0 18 119 32 32 48 35 8 0 0 20 16 16 45 44 48 0 8 109 0 18 0 0 38 18 105 111 0 20 84 15 5 3 0 0 5 10 5 4 6 28 4 4 8 4 0 2 7 4 0 14 3 2 6 173 8 6 21 7 0 0 5 14 9 0 0 0 0 0 0 0 30 0 0 9 0 0 0 44 0 30 0 209 0 190 200 0 94 54 0 9 6 16 40 30 40 0 210 160 47 108 28 51 30 0 82 26 213 0 36 15 64 158 36 0 231 63 158 2 0 124 0 171 72 0 10 116 0 27 8 0 0 0 20 12 6 6 352 4 4 0 0 52 2 2 15 0 0 2 6 11 0 70 22 0 20 14 19 8 3 0 0 0 0 0 0 0 0 0 0 56 8 0 35 22 15 50 0 8 9 243 36 13 20 184 0 96 154 0 12 0 0 45 21 57 0 60 51 16 119 36 55 27 50 0 0 66 6 0 0 46 3 110 0 10 9 13 9 0 80 0 0 0 0 0 0 0 0 0 0 0 200 383 8 3 14 0 18 16 4 9 705 0 19 44 4 0 49 33 90 0 66 18 16 28 0 154 0 193 144 0 80 81 81 0 0 40 0 38 6 1 5 12 15 4 4 21 2 53 75 50 108 0 17 2 2 0 4 6 0 24 48 8 0 0 0 0 47 43 165 85 0 88 260 0 13 64 154 63 144 120 60 245 21 0 0 0 0 26 0 27 76 15 12 24 16 0 30 2 5 6 2 33 4 26 1 3 0 0 0 0 0 0 0 7 0 69 0 0 0 22 36 36 189 0 12 0 0 0 2 132 0 16 29 44 0 0 0 22 20 3 
Printing Sanity2
Heartbeat CPU 0 instructions: 10000000 cycles: 2813701 heartbeat IPC: 3.55404 cumulative IPC: 3.55404 (Simulation time: 0 hr 0 min 25 sec) 
Heartbeat CPU 0 instructions: 20000000 cycles: 5626669 heartbeat IPC: 3.55496 cumulative IPC: 3.5545 (Simulation time: 0 hr 0 min 50 sec) 
Heartbeat CPU 0 instructions: 30000003 cycles: 8441007 heartbeat IPC: 3.55323 cumulative IPC: 3.55408 (Simulation time: 0 hr 1 min 15 sec) 
*** Reached end of trace for Core: 0 Repeating trace: traces/spec2k17/srv_29.champsimtrace.xz
Heartbeat CPU 0 instructions: 40000000 cycles: 11256403 heartbeat IPC: 3.5519 cumulative IPC: 3.55353 (Simulation time: 0 hr 1 min 40 sec) 
Heartbeat CPU 0 instructions: 50000000 cycles: 14069680 heartbeat IPC: 3.55457 cumulative IPC: 3.55374 (Simulation time: 0 hr 2 min 5 sec) 

Warmup complete CPU 0 instructions: 50000004 cycles: 14069681 (Simulation time: 0 hr 2 min 5 sec) 

Heartbeat CPU 0 instructions: 60000001 cycles: 28013671 heartbeat IPC: 0.717155 cumulative IPC: 0.717155 (Simulation time: 0 hr 2 min 36 sec) 
*** Reached end of trace for Core: 0 Repeating trace: traces/spec2k17/srv_29.champsimtrace.xz
Heartbeat CPU 0 instructions: 70000000 cycles: 42066063 heartbeat IPC: 0.711623 cumulative IPC: 0.714378 (Simulation time: 0 hr 3 min 8 sec) 
Heartbeat CPU 0 instructions: 80000000 cycles: 55938185 heartbeat IPC: 0.72087 cumulative IPC: 0.716529 (Simulation time: 0 hr 3 min 39 sec) 
Heartbeat CPU 0 instructions: 90000000 cycles: 69802105 heartbeat IPC: 0.721297 cumulative IPC: 0.717715 (Simulation time: 0 hr 4 min 10 sec) 
*** Reached end of trace for Core: 0 Repeating trace: traces/spec2k17/srv_29.champsimtrace.xz
Heartbeat CPU 0 instructions: 100000001 cycles: 83752995 heartbeat IPC: 0.7168 cumulative IPC: 0.717532 (Simulation time: 0 hr 4 min 42 sec) 
Heartbeat CPU 0 instructions: 110000000 cycles: 97368482 heartbeat IPC: 0.734458 cumulative IPC: 0.720298 (Simulation time: 0 hr 5 min 13 sec) 
Heartbeat CPU 0 instructions: 120000002 cycles: 111543421 heartbeat IPC: 0.705471 cumulative IPC: 0.718142 (Simulation time: 0 hr 5 min 44 sec) 
*** Reached end of trace for Core: 0 Repeating trace: traces/spec2k17/srv_29.champsimtrace.xz
Heartbeat CPU 0 instructions: 130000002 cycles: 125386496 heartbeat IPC: 0.722383 cumulative IPC: 0.718669 (Simulation time: 0 hr 6 min 15 sec) 
Heartbeat CPU 0 instructions: 140000001 cycles: 139104591 heartbeat IPC: 0.728964 cumulative IPC: 0.719799 (Simulation time: 0 hr 6 min 47 sec) 
Heartbeat CPU 0 instructions: 150000001 cycles: 153267176 heartbeat IPC: 0.706086 cumulative IPC: 0.718404 (Simulation time: 0 hr 7 min 18 sec) 
*** Reached end of trace for Core: 0 Repeating trace: traces/spec2k17/srv_29.champsimtrace.xz
Heartbeat CPU 0 instructions: 160000001 cycles: 167162750 heartbeat IPC: 0.719654 cumulative IPC: 0.718517 (Simulation time: 0 hr 7 min 49 sec) 
Heartbeat CPU 0 instructions: 170000001 cycles: 180835546 heartbeat IPC: 0.731379 cumulative IPC: 0.719572 (Simulation time: 0 hr 8 min 20 sec) 
Heartbeat CPU 0 instructions: 180000001 cycles: 194745801 heartbeat IPC: 0.718894 cumulative IPC: 0.71952 (Simulation time: 0 hr 8 min 51 sec) 
Heartbeat CPU 0 instructions: 190000000 cycles: 208525687 heartbeat IPC: 0.725695 cumulative IPC: 0.719957 (Simulation time: 0 hr 9 min 22 sec) 
*** Reached end of trace for Core: 0 Repeating trace: traces/spec2k17/srv_29.champsimtrace.xz
Heartbeat CPU 0 instructions: 200000003 cycles: 222362000 heartbeat IPC: 0.722736 cumulative IPC: 0.720142 (Simulation time: 0 hr 9 min 54 sec) 
Heartbeat CPU 0 instructions: 210000003 cycles: 235881535 heartbeat IPC: 0.73967 cumulative IPC: 0.721332 (Simulation time: 0 hr 10 min 25 sec) 
Heartbeat CPU 0 instructions: 220000000 cycles: 249425367 heartbeat IPC: 0.738343 cumulative IPC: 0.722311 (Simulation time: 0 hr 10 min 56 sec) 
*** Reached end of trace for Core: 0 Repeating trace: traces/spec2k17/srv_29.champsimtrace.xz
Heartbeat CPU 0 instructions: 230000002 cycles: 263232073 heartbeat IPC: 0.724286 cumulative IPC: 0.72242 (Simulation time: 0 hr 11 min 27 sec) 
Heartbeat CPU 0 instructions: 240000001 cycles: 276800945 heartbeat IPC: 0.736981 cumulative IPC: 0.723172 (Simulation time: 0 hr 11 min 58 sec) 
Heartbeat CPU 0 instructions: 250000002 cycles: 290270174 heartbeat IPC: 0.742433 cumulative IPC: 0.724112 (Simulation time: 0 hr 12 min 29 sec) 
Finished CPU 0 instructions: 200000002 cycles: 276200494 cumulative IPC: 0.724112 (Simulation time: 0 hr 12 min 29 sec) 

ChampSim completed all CPUs

Region of Interest Statistics

CPU 0 cumulative IPC: 0.724112 instructions: 200000002 cycles: 276200494
ITLB TOTAL     ACCESS:   32457220  HIT:   32347763  MISS:     109457  HIT %:    99.6628  MISS %:   0.337235   MPKI: 0.547285
ITLB LOAD TRANSLATION ACCESS:   32457220  HIT:   32347763  MISS:     109457  HIT %:    99.6628  MISS %:   0.337235   MPKI: 0.547285
ITLB PREFETCH  REQUESTED:          0  ISSUED:          0  USEFUL:          0  USELESS:          0
ITLB USEFUL LOAD PREFETCHES:          0 PREFETCH ISSUED TO LOWER LEVEL:          0  ACCURACY: -nan
ITLB TIMELY PREFETCHES:          0 LATE PREFETCHES: 0 DROPPED PREFETCHES: 0
ITLB PREFETCHES SAME FILL-ORIGIN LEVEL: 0 DIFFERENT FILL-ORIGIN LEVEL: 0
ITLB AVERAGE MISS LATENCY: 10.6754 cycles
ITLB RQ	ACCESS:   38258092	FORWARD:          0	MERGED:    5765180	TO_CACHE:   32492912

DTLB TOTAL     ACCESS:   40771064  HIT:   38962751  MISS:    1808313  HIT %:    95.5647  MISS %:    4.43529   MPKI: 9.04156
DTLB LOAD TRANSLATION ACCESS:   40771064  HIT:   38962751  MISS:    1808313  HIT %:    95.5647  MISS %:    4.43529   MPKI: 9.04156
DTLB PREFETCH  REQUESTED:          0  ISSUED:          0  USEFUL:          0  USELESS:          0
DTLB USEFUL LOAD PREFETCHES:          0 PREFETCH ISSUED TO LOWER LEVEL:          0  ACCURACY: -nan
DTLB TIMELY PREFETCHES:          0 LATE PREFETCHES: 0 DROPPED PREFETCHES: 0
DTLB PREFETCHES SAME FILL-ORIGIN LEVEL: 0 DIFFERENT FILL-ORIGIN LEVEL: 0
DTLB AVERAGE MISS LATENCY: 10.8354 cycles
DTLB RQ	ACCESS:   54793179	FORWARD:          0	MERGED:   13819757	TO_CACHE:   40973422

STLB TOTAL     ACCESS:   23272501  HIT:   23184448  MISS:      88053  HIT %:    99.6216  MISS %:   0.378356   MPKI: 0.440265
STLB LOAD TRANSLATION ACCESS:    1917770  HIT:    1831242  MISS:      86528  HIT %:    95.4881  MISS %:    4.51191   MPKI: 0.43264
STLB TRANSLATION FROM L1D PREFETCHER ACCESS:   21354731  HIT:   21353206  MISS:       1525  HIT %:    99.9929  MISS %: 0.00714127   MPKI: 0.007625
STLB PREFETCH  REQUESTED:          0  ISSUED:          0  USEFUL:       1243  USELESS:        282
STLB USEFUL LOAD PREFETCHES:       1243 PREFETCH ISSUED TO LOWER LEVEL:          0  ACCURACY: inf
STLB TIMELY PREFETCHES:       1243 LATE PREFETCHES: 0 DROPPED PREFETCHES: 2277876
STLB PREFETCHES SAME FILL-ORIGIN LEVEL: 0 DIFFERENT FILL-ORIGIN LEVEL: 0
STLB AVERAGE MISS LATENCY: 40.0499 cycles
STLB RQ	ACCESS:   30185558	FORWARD:          0	MERGED:    4635145	TO_CACHE:   25550413

STLB Hit, L1D data hit: 0
STLB Hit, L2C data hit: 0
STLB Hit, LLC data hit: 0
STLB Hit, LLC data miss: 0
STLB STLB hints to L2: 0
L1D TOTAL     ACCESS:   79931118  HIT:   79158478  MISS:     772640  HIT %:    99.0334  MISS %:   0.966632   MPKI: 3.8632
L1D LOAD      ACCESS:   30756113  HIT:   30375786  MISS:     380327  HIT %:    98.7634  MISS %:    1.23659   MPKI: 1.90163
L1D RFO       ACCESS:   23406516  HIT:   23261029  MISS:     145487  HIT %:    99.3784  MISS %:   0.621566   MPKI: 0.727435
L1D PREFETCH  ACCESS:   25768489  HIT:   25521663  MISS:     246826  HIT %:    99.0421  MISS %:    0.95786   MPKI: 1.23413
AGUS PREFETCH L1 MISS: 0
L1D PREFETCH  REQUESTED:   59111317  ISSUED:   59099697  USEFUL:      41431  USELESS:     205389
L1D USEFUL LOAD PREFETCHES:      41431 PREFETCH ISSUED TO LOWER LEVEL:     252141  ACCURACY: 16.4317
L1D TIMELY PREFETCHES:      41431 LATE PREFETCHES: 4255 DROPPED PREFETCHES: 2277876
L1D PREFETCHES SAME FILL-ORIGIN LEVEL: 252141 DIFFERENT FILL-ORIGIN LEVEL: 0
L1D AVERAGE MISS LATENCY: 1.06428e+06 cycles
L1D RQ	ACCESS:   49545139	FORWARD:          0	MERGED:   18578703	TO_CACHE:   30843532
L1D WQ	ACCESS:   24205930	FORWARD:     247943	MERGED:     256283	TO_CACHE:   23949647
L1D PQ	ACCESS:   30831909	FORWARD:          0	MERGED:    2439082	TO_CACHE:   28267788

L1D UNIQUE REGIONS ACCESSED: 0
L1D REGIONS CONFLICTS: 0
L1D Cross Page Prefetch Requests: 4413048
L1D Same Page Prefetch Requests: 33585141
L1D ROI Sum of L1D PQ occupancy: 520206173
L1D PREFETCHES PUSHED FROM L2C: 0
L1I TOTAL     ACCESS:   38059567  HIT:   37402103  MISS:     657464  HIT %:    98.2725  MISS %:    1.72746   MPKI: 3.28732
L1I LOAD      ACCESS:   38059567  HIT:   37402103  MISS:     657464  HIT %:    98.2725  MISS %:    1.72746   MPKI: 3.28732
L1I PREFETCH  REQUESTED:          0  ISSUED:          0  USEFUL:          0  USELESS:          0
L1I USEFUL LOAD PREFETCHES:          0 PREFETCH ISSUED TO LOWER LEVEL:          0  ACCURACY: -nan
L1I TIMELY PREFETCHES:          0 LATE PREFETCHES: 0 DROPPED PREFETCHES: 0
L1I PREFETCHES SAME FILL-ORIGIN LEVEL: 0 DIFFERENT FILL-ORIGIN LEVEL: 0
L1I AVERAGE MISS LATENCY: 17.1133 cycles
L1I RQ	ACCESS:   60428271	FORWARD:          0	MERGED:   22170179	TO_CACHE:   38258092

BTB TOTAL     ACCESS:   29558552  HIT:   27898491  MISS:    1660061  HIT %:    94.3838  MISS %:    5.61618   MPKI: 8.3003
BTB BRANCH_DIRECT_JUMP	ACCESS:    2284609  HIT:    2283159  MISS:       1450
BTB BRANCH_INDIRECT	ACCESS:   12524838  HIT:   11977687  MISS:     547151
BTB BRANCH_CONDITIONAL	ACCESS:    7193896  HIT:    7191833  MISS:       2063
BTB BRANCH_DIRECT_CALL	ACCESS:    3327862  HIT:    3324183  MISS:       3679
BTB BRANCH_INDIRECT_CALL	ACCESS:     449728  HIT:     256600  MISS:     193128
BTB BRANCH_RETURN	ACCESS:    3777619  HIT:    2865029  MISS:     912590
BTB BRANCH_OTHER ACCESS:          0  HIT:          0  MISS:          0

L2C TOTAL     ACCESS:    5228129  HIT:    4526424  MISS:     701705  HIT %:    86.5783  MISS %:    13.4217   MPKI: 3.50852
L2C LOAD      ACCESS:    1033529  HIT:     695430  MISS:     338099  HIT %:    67.2869  MISS %:    32.7131   MPKI: 1.69049
L2C DATA LOAD MPKI: 1.46476
L2C INSTRUCTION LOAD MPKI: 0.225735
L2C RFO       ACCESS:     144406  HIT:      14069  MISS:     130337  HIT %:    9.74267  MISS %:    90.2573   MPKI: 0.651685
L2C PREFETCH  ACCESS:     252141  HIT:      54761  MISS:     197380  HIT %:    21.7184  MISS %:    78.2816   MPKI: 0.9869
AGUS PREFETCH L1 MISS: 0
L2C DATA PREFETCH MPKI: 0.9869
L2C INSTRUCTION PREFETCH MPKI: 0
L2C WRITEBACK ACCESS:     203357  HIT:     199101  MISS:       4256  HIT %:    97.9071  MISS %:    2.09287   MPKI: 0.02128
L2C LOAD TRANSLATION ACCESS:     123932  HIT:      93120  MISS:      30812  HIT %:     75.138  MISS %:     24.862   MPKI: 0.15406
L2C TRANSLATION FROM L1D PREFETCHER ACCESS:    3470764  HIT:    3469943  MISS:        821  HIT %:    99.9763  MISS %:  0.0236547   MPKI: 0.004105
L2C PREFETCH  REQUESTED:          0  ISSUED:          0  USEFUL:       4824  USELESS:     193338
L2C USEFUL LOAD PREFETCHES:       4824 PREFETCH ISSUED TO LOWER LEVEL:     197380  ACCURACY: 2.44402
L2C TIMELY PREFETCHES:       4824 LATE PREFETCHES: 0 DROPPED PREFETCHES: 0
L2C PREFETCHES SAME FILL-ORIGIN LEVEL: 0 DIFFERENT FILL-ORIGIN LEVEL: 0
L2C AVERAGE MISS LATENCY: 119.445 cycles
L2C RQ	ACCESS:    4772659	FORWARD:          0	MERGED:          0	TO_CACHE:    4772631
L2C WQ	ACCESS:     203357	FORWARD:         28	MERGED:          0	TO_CACHE:     203357
L2C PQ	ACCESS:     252141	FORWARD:          0	MERGED:          0	TO_CACHE:     252141

L2C Instructions Evicting Data 40315
L2C Translations Evicting Data 27871
L2C Data Evicting Data 552738
L2C Instructions Evicting Instructions 2637
L2C Translations Evicting Instructions 2552
L2C Data Evicting Instructions 40190
L2C Instructions Evicting Translations 2195
L2C Translations Evicting Translations 1210
L2C Data Evicting Translations 27741
L2C Dense regions hint from L2: 0
PSCL5 TOTAL     ACCESS:    2365929  HIT:    2365929  MISS:          0  HIT %:        100  MISS %:          0   MPKI: 0
PSCL5 LOAD TRANSLATION ACCESS:      86528  HIT:      86528  MISS:          0  HIT %:        100  MISS %:          0   MPKI: 0
PSCL5 TRANSLATION FROM L1D PREFETCHER ACCESS:    2279401  HIT:    2279401  MISS:          0  HIT %:        100  MISS %:          0   MPKI: 0
PSCL5 PREFETCH  REQUESTED:          0  ISSUED:          0  USEFUL:          0  USELESS:          0
PSCL5 USEFUL LOAD PREFETCHES:          0 PREFETCH ISSUED TO LOWER LEVEL:          0  ACCURACY: -nan
PSCL5 TIMELY PREFETCHES:          0 LATE PREFETCHES: 0 DROPPED PREFETCHES: 0
PSCL5 PREFETCHES SAME FILL-ORIGIN LEVEL: 0 DIFFERENT FILL-ORIGIN LEVEL: 0

PSCL4 TOTAL     ACCESS:    2357815  HIT:    2357671  MISS:        144  HIT %:    99.9939  MISS %: 0.00610735   MPKI: 0.00072
PSCL4 LOAD TRANSLATION ACCESS:      83899  HIT:      83755  MISS:        144  HIT %:    99.8284  MISS %:   0.171635   MPKI: 0.00072
PSCL4 TRANSLATION FROM L1D PREFETCHER ACCESS:    2273916  HIT:    2273916  MISS:          0  HIT %:        100  MISS %:          0   MPKI: 0
PSCL4 PREFETCH  REQUESTED:          0  ISSUED:          0  USEFUL:          0  USELESS:          0
PSCL4 USEFUL LOAD PREFETCHES:          0 PREFETCH ISSUED TO LOWER LEVEL:          0  ACCURACY: -nan
PSCL4 TIMELY PREFETCHES:          0 LATE PREFETCHES: 0 DROPPED PREFETCHES: 0
PSCL4 PREFETCHES SAME FILL-ORIGIN LEVEL: 0 DIFFERENT FILL-ORIGIN LEVEL: 0

PSCL3 TOTAL     ACCESS:    2357460  HIT:    2357043  MISS:        417  HIT %:    99.9823  MISS %:  0.0176885   MPKI: 0.002085
PSCL3 LOAD TRANSLATION ACCESS:      86240  HIT:      85823  MISS:        417  HIT %:    99.5165  MISS %:   0.483534   MPKI: 0.002085
PSCL3 TRANSLATION FROM L1D PREFETCHER ACCESS:    2271220  HIT:    2271220  MISS:          0  HIT %:        100  MISS %:          0   MPKI: 0
PSCL3 PREFETCH  REQUESTED:          0  ISSUED:          0  USEFUL:          0  USELESS:          0
PSCL3 USEFUL LOAD PREFETCHES:          0 PREFETCH ISSUED TO LOWER LEVEL:          0  ACCURACY: -nan
PSCL3 TIMELY PREFETCHES:          0 LATE PREFETCHES: 0 DROPPED PREFETCHES: 0
PSCL3 PREFETCHES SAME FILL-ORIGIN LEVEL: 0 DIFFERENT FILL-ORIGIN LEVEL: 0

PSCL2 TOTAL     ACCESS:    1175976  HIT:    1139015  MISS:      36961  HIT %:     96.857  MISS %:    3.14301   MPKI: 0.184805
PSCL2 LOAD TRANSLATION ACCESS:      86640  HIT:      49679  MISS:      36961  HIT %:    57.3396  MISS %:    42.6604   MPKI: 0.184805
PSCL2 TRANSLATION FROM L1D PREFETCHER ACCESS:    1089336  HIT:    1089336  MISS:          0  HIT %:        100  MISS %:          0   MPKI: 0
PSCL2 PREFETCH  REQUESTED:          0  ISSUED:          0  USEFUL:          0  USELESS:          0
PSCL2 USEFUL LOAD PREFETCHES:          0 PREFETCH ISSUED TO LOWER LEVEL:          0  ACCURACY: -nan
PSCL2 TIMELY PREFETCHES:          0 LATE PREFETCHES: 0 DROPPED PREFETCHES: 0
PSCL2 PREFETCHES SAME FILL-ORIGIN LEVEL: 0 DIFFERENT FILL-ORIGIN LEVEL: 0

LLC TOTAL     ACCESS:     870355  HIT:     457621  MISS:     412734  HIT %:    52.5787  MISS %:    47.4213   MPKI: 2.06367
LLC LOAD      ACCESS:     338099  HIT:     133323  MISS:     204776  HIT %:    39.4331  MISS %:    60.5669   MPKI: 1.02388
LLC RFO       ACCESS:     130337  HIT:      70775  MISS:      59562  HIT %:    54.3015  MISS %:    45.6985   MPKI: 0.29781
LLC PREFETCH  ACCESS:     197380  HIT:      62121  MISS:     135259  HIT %:    31.4728  MISS %:    68.5272   MPKI: 0.676295
AGUS PREFETCH L1 MISS: 0
LLC WRITEBACK ACCESS:     172906  HIT:     162924  MISS:       9982  HIT %:    94.2269  MISS %:    5.77308   MPKI: 0.04991
LLC LOAD TRANSLATION ACCESS:      30812  HIT:      27930  MISS:       2882  HIT %:    90.6465  MISS %:     9.3535   MPKI: 0.01441
LLC TRANSLATION FROM L1D PREFETCHER ACCESS:        821  HIT:        548  MISS:        273  HIT %:    66.7479  MISS %:    33.2521   MPKI: 0.001365
LLC PREFETCH  REQUESTED:          0  ISSUED:          0  USEFUL:       1453  USELESS:     135859
LLC USEFUL LOAD PREFETCHES:       1453 PREFETCH ISSUED TO LOWER LEVEL:     135259  ACCURACY: 1.07424
LLC TIMELY PREFETCHES:       1453 LATE PREFETCHES: 0 DROPPED PREFETCHES: 0
LLC PREFETCHES SAME FILL-ORIGIN LEVEL: 0 DIFFERENT FILL-ORIGIN LEVEL: 0
LLC AVERAGE MISS LATENCY: 152.376 cycles
LLC RQ	ACCESS:     500069	FORWARD:          0	MERGED:          0	TO_CACHE:     500069
LLC WQ	ACCESS:     172906	FORWARD:          0	MERGED:          0	TO_CACHE:     172906
LLC PQ	ACCESS:     197380	FORWARD:          0	MERGED:          0	TO_CACHE:     197380

LLC Dense regions hint to LLC: 0

RAW hits: 2370256
Loads Generated: 51915376
Loads sent to L1D: 49545139
Stores Generated: 24205900
Stores sent to L1D: 24205930
Major fault: 0 Minor fault: 6265
Allocated PAGES: 6265
ucb ended
-----------------------------------------------------------------------------------------------------------------------------------------------------------------------------------------------------
Offsets elements: -1 16382 -1465996506577 1465996506577 1 -1465996506797 1465996506797 -16382 18995158 -54377674 54377676 -1466015485607 386 1465996611753 -326240 -2 7 203549 -1033 -202521 6 -1465996285895 1465996488411 6202 -208718 19199703 -1466015485606 1466015485608 -18873469 18873468 -1466015485591 1465996583439 345 28337 -4961 18878433 -1466015485226 16 1465996285500 33 376 1465996285486 -1465996285897 1466015485222 -19199712 -1465996285864 1465996494515 -1465996494549 400 -400 1466015485612 -1466015485227 1465996611754 18873471 -1466015485610 406 -5 1466015485210 -1466015485613 -18873473 -117597 -208644 1465996285863 -52829446 -274896 -1465943181220 -332 1466015485607 -1466015483813 1466015483814 -1466015485302 -301 1465943166660 -1465943166664 1794 -1794 1465996603501 -1465996604963 -1425 3219 -1462 1465943166664 72318943 -19004386 -195328 -1465996287319 1425 1465943164870 -1465943166332 1797 1465943454651 53024774 25604 6142 -1465996512968 1466015483813 1466015485303 -1790 -4 305 27 1465996605295 -1465996603501 3 1465996478404 1020 -1020 -1465996481626 1465996514393 -31745 19004385 1466015485613 -19199716 2 19199714 -1466015485234 1465996285518 -1465996285896 1465996612139 -1465996611760 1465996016846 594914 -326242 -268672 -1465996017225 1465996285898 326241 -1465996285871 1465996017199 268672 -1465996285894 332 1466015485275 -1489 1465943428477 -1465943428809 1465996479424 -1465996482646 1465943427015 53084159 -227074 195328 -1465996480926 -292 328 1465996604963 -1465996606690 -30 1465996482647 -1465996480890 1465996480942 -52 -18880311 18880310 -1466015485273 1465943428504 -1465943430234 1730 1466015485302 -19199713 -1465996017199 -1465996285598 1465996480889 81 19004304 -18880310 18880311 1466015485301 -72318942 -1465943168089 1422 8 363 1465996016853 19468386 30 1465996482648 -1465996480891 -19004256 -1465996481017 -19005405 1430 1466015485602 371 268673 -1465996017216 1465996017216 -49 -18873472 -1465996285898 1465943456452 53155687 -53430583 -1465943181536 1465996583423 -53401887 -1465943181555 -2723 1465996608022 -1465996604928 1465996583201 -1465996583539 1465996579339 -1465996579360 1465996490428 -53308887 53308886 93033 -53401919 -1465943181303 1465943181303 53423744 -114857 88931 -88931 88930 -1465996579119 -233 21857 -21727 -53402017 53397817 -53397817 53397816 -73553 18979796 -18988003 -211712 1465996488392 -1465996488021 -371 408 -406 1465996579374 -6 -1465996579367 -3 1465996285499 211710 -1465996497211 5 -402 34 348 28 -411 379 -378 326240 -117600 -1465996494140 -381 23376 4961 -4962 -1466015485601 1465996285890 19199713 -1465996285484 -379 1465943456418 53048357 2021 -16380 -1465996506796 219 1465996506578 -1465996490194 1465996490194 -35384714 -1465961122093 1465948609708 47897099 -47897099 47897100 -47897100 66875875 -66875874 47880716 -1465996506576 1465996506576 -9090762 -1465987416045 1465987416044 9090763 -9090763 18978776 -18978775 -9090764 -9074382 28069540 385 -386 208718 -1465996494613 -202516 19199704 -1466015485608 18873470 -1465996606779 -16 1465996285516 31 -33 1465996494163 -208652 -34 -1466015485211 1466015485611 -1466015485205 1465996611737 1465943166359 -1465943166359 -1730 1429 1465996605291 -1465996605295 -1465943164870 -1757 1465996481221 19004386 1465996284096 -53119230 289784 53056520 -31746 -1465996506494 1465996479896 1466015487033 1462 -19199714 19199715 1799 19005408 1465996285520 -1465996287320 -227075 195330 -1465996481226 1465996017225 -1465996612113 1465996285872 -1465996285562 72056797 -1466015485301 -1466015487032 -1465996481217 1465943428805 53176486 -1465996606720 319401 -1465996604999 36 1727 1466015487031 -19004384 124073 -72056798 52857085 -1447 1465996018646 -268673 -1465996016925 -1727 1465996606690 -1466015487031 -1465996480889 1465996480970 -1465996481302 1466015483812 -300 1465943166659 1466015487032 1465996017224 346 -19004383 124072 -123946 1465996480196 1465996285896 -1465996285525 -48 -1465996612119 1465943181536 53401887 -1465996586165 1465943184278 -1465996605299 1465996583572 -1465996583201 1465996579001 -88932 -1465996490409 1465996490408 -53308886 -1465943181541 1465996583460 -1465996583222 -88930 -1465996490189 53324259 -53324259 -81764 81763 -53397816 53306837 90975 18906243 -18988002 18988003 -1466015485577 1465996285862 37 -397 402 -20 -410 1465996285899 17 1465996494521 1465996583058 -321280 -1465996285890 1465996285889 -1465996285863 -1465943456039 1465996504396 -14359 16379 -16381 -1465996490414 1465996506796 -35365818 -1465961140989 1465978120188 18386620 -18386620 18386621 -18386621 18370238 202516 -18990984 -1465996488420 1466015485592 -18902153 4962 -1465996611740 -24 1465996285897 208652 -208651 -1465996285512 -352 407 1466015485205 -1466015485210 1465996284097 -53314557 -53056520 -1465943456448 1465996481222 -1465996479428 1465996505032 -1465996506521 1465996480197 125094 -125094 -1465996478407 1465996482646 -1465996479424 -1797 1465996285893 1465996284101 -19005408 -1465996479826 227075 -464002 -1465996017224 26 353 1465996611760 -594914 -1465943428805 -1429 1465996606720 1757 -1465996479427 1465943427012 -1465996512964 1465996481218 -319401 1465996482616 -1465996481221 1465996284100 195380 -195381 -52588412 52588412 -1465996018646 1465996287318 80 -1465996480970 1465996480890 -1466015485605 -27 -1466015485609 -19468386 -1465996015427 -1772 1465996285526 -52850557 1466015485274 -1466015487030 -1395 -308 -3219 -1465996480855 1465996480981 -464128 194308 -462980 19468341 -19468341 -47 19468387 -1466015485611 -1466015485593 -1465996583442 326242 -1465996612139 1465996605266 -357 1465943456437 53127023 28664 -28566 -93130 -1465996608022 2975 53397819 -1465996490422 1465996579352 4070 -1465996583190 1465996605047 73558 -81759 -9216 90982 -7 18906242 -1465996497608 1466015485610 -19199715 -1465996285899 35 -17 361 20 -1465996583801 1465996607177 -1465996494167 -15 1465996285487 1465996285484 218912 14358 -1465996490195 -35361648 -11401126 46762774 -46762775 -1465949744032 1465996506807 -46762774 46746392 -46746393 46762775 -46762776 -1465949743801 4917777 -1465954661809 -41844999 41844999 -41845000 41845000 -60823774 60823775 19199702 -1466015485590 -1465996583058 1466015485226 -18901807 18878431 -18873470 -1465996612136 410 -353 208651 -1465996494515 1466015485225 -18873471 18873472 1465996285496 -1465996494508 -1465996284100 -1465943454654 -6142 -25604 -1465996480917 -1465996480197 1465996480201 -1465996478404 1465996512973 -326241 -1465996016889 -53052412 -1465943427012 1465996511171 292 -1466015485585 1772 -52857084 -80 1466015485605 1465996016916 -346 -53119229 52850557 1465996481017 -126 1789 -1426 462980 -1465996480196 -1430 2723 -1465996612124 21825 1465943456080 53127121 88933 -53397819 53308887 -1465996490190 1465996490189 -1465996579339 -1465996605280 233 1465996583190 -4070 25928 -77758 53316053 81764 -293471 -1465996488392 -1465996578959 1465996497211 -1465996497574 -32 -361 -1465996606778 -391 1465996494531 -208641 -1465996285485 -1465996504775 1465996490416 -1465996506807 1465961148328 30618240 4740240 -4740240 23719016 -23719015 4723858 -18978776 -4740241 23719018 -18978777 23719017 -203554 -1465996285518 -1465996612130 18990987 -18997189 19199705 18 -1465996285487 -1465996612135 -335 -1465996284099 -1391 -1465996612105 -1465943456143 1465996494233 -53312986 -14888 -1465943166660 53314557 31746 53050378 -1466015485275 1466015485276 1465996605300 1466015483815 -1466015485233 1419 -19004388 194306 -1800 -1465996481227 -1466015485603 1465996285894 1498 -3192 -53176486 19004384 -1465943428504 1465996287319 -124074 -1465996482616 -1465996481222 1465996481302 -1465996479508 -25 -1465996016853 -328 1466015487001 1465996481349 -1465996479555 -46 1465996285878 -18873474 -28696 -297546 1465943456451 -1465943459174 1465943181184 53402017 -1465996579122 1465996579120 -19 1465996605280 -21857 53104341 -1465996285644 1465996579372 1465996505408 -1465996505414 1465996497608 -211710 -1465996285516 1465996488010 -1465996488358 1465996578964 -1465996285520 1465996612138 -1465996612121 1465996285864 1465943456444 -1465996490415 1465996490414 -1465996490425 230 -35382786 35366405 -29131398 29131397 -29131397 10152621 -10152621 29131399 -10152622 -1465986354208 1465996506830 -1466015485222 -1465996285904 381 1465996611756 -18902152 -1465996607174 -1465996285510 1465996494139 -1465996494550 1466015485609 -1465996612104 366 -384 -1466015485612 -1465943456116 1465943181220 -1465943181552 1465996284099 -1465943164867 1465943456448 -1465943457873 1465943168089 1465996512663 -1465996481218 1465996285900 -1466015483815 -1419 1465996479826 -1465996480204 1465996512972 130912 -283 -1466015485300 -1465996017270 -1465996285882 1465943181522 -1465996605047 -293475 211712 1465996579367 -90975 -399 293476 -1465996578970 -1465996583403 1465996606778 -112639 -1465996494531 1465996612131 -35388088 -1465961118719 1465987416138 9090670 -9090670 -9090671 9090671 28069446 -28069445 9074288 28069448 9 -8 122686 1465996488034 -18997190 -1465996285886 -1465996583457 1465996583802 23375 -1465996611754 4 -1465996285588 98 -1764 1465996494508 -53038090 -1465943181548 -53438631 1465996479427 -1465996285893 1465996481226 19004388 1466015485234 1465996480205 268674 -1465996613560 -195330 1466015485606 -1466015485274 1465996285562 1465996604999 -1789 300 53119229 -1465996287318 19005406 -45 1465996583442 -1465996583428 -1465996586197 3094 1465996604928 -53423744 93131 1465996579122 1465996579338 -93001 18995169 -18906238 72304056 -72304055 1465996285644 1465996505814 77758 1465996497226 293474 -88918 89263 -321279 18995159 18978777 -122686 -6202 -35148951 -1465961136953 -1465996285486 -1466015485209 1466015485227 -1465996612138 -1466015485277 -1465996285490 -1465996611830 1489 53038090 -1465996494233 1465943181247 53438631 1465943166332 1465996506494 -1465996506826 1465996478407 -1466015485604 -18880314 -319402 19199716 1465996284098 195326 1465996480204 -1465996016846 1465996612113 1465943428809 -1465996480925 1465943428513 72056798 -1465943166659 -53126991 -1465943181522 -1465996490427 1465943181541 53401919 -1465996583455 -25927 4200 -1465996583572 -1465996505417 88918 -1465996506808 1465961152982 35337213 -65239766 65239765 -46260989 46260989 18978778 46260990 -1465996506830 1465950245840 -46260990 -1465950245455 18901808 -18878432 -1465996607177 -18880312 1465996285561 1465943164867 1465996285871 -1465996017221 -19004331 -1465996480942 -1466015483812 -1465996285888 -1465943166296 1465996480891 -1466015485239 -44 1465996285882 297578 1465996612121 -28682 1465996494140 
Potential of Offsets elements: 1272.11 45.4352 62.4352 68.4352 1194.8 44.4352 33.4352 44.4352 41.4352 28.4352 28.4352 262.435 52.4352 39.4352 88.4352 750.435 482.435 31.4352 30.4352 52.4352 449.435 249.435 36.4352 30.4352 30.4352 37.4352 310.435 291.435 58.4352 49.4352 62.4352 64.4352 47.4352 46.4352 88.4352 70.4352 67.4352 191.435 63.4352 93.4352 46.4352 109.435 676.435 43.4352 442.435 139.435 31.4352 46.4352 78.4352 81.4352 256.435 74.4352 39.4352 118.435 299.435 75.4352 382.435 103.435 89.4352 184.435 48.4352 53.4352 234.435 160.435 53.4352 148.435 163.435 454.435 182.435 248.435 98.4352 48.4352 68.4352 73.4352 142.435 186.435 118.435 266.435 322.435 236.435 334.435 108.435 49.4352 109.435 28.4352 28.4352 198.435 55.4352 73.4352 144.435 28.4352 28.4352 48.4352 46.4352 82.4352 154.435 77.4352 127.435 783.435 188.435 337.435 249.435 158.435 866.435 40.4352 52.4352 43.4352 72.4352 67.4352 40.4352 114.435 62.4352 28.4352 851.435 28.4352 40.4352 28.4352 28.4352 171.435 48.4352 28.4352 28.4352 28.4352 28.4352 28.4352 28.4352 28.4352 28.4352 28.4352 28.4352 28.4352 358.435 348.435 172.435 76.4352 104.435 43.4352 112.435 112.435 48.4352 28.4352 28.4352 49.4352 49.4352 140.435 389.435 154.435 262.435 84.4352 98.4352 30.4352 36.4352 184.435 154.435 153.435 94.4352 84.4352 50.4352 166.435 28.4352 28.4352 28.4352 148.435 35.4352 39.4352 148.435 268.435 49.4352 52.4352 72.4352 166.435 610.435 44.4352 28.4352 28.4352 291.435 52.4352 96.4352 33.4352 45.4352 64.4352 67.4352 106.435 80.4352 28.4352 28.4352 28.4352 43.4352 116.435 28.4352 54.4352 28.4352 76.4352 36.4352 50.4352 38.4352 94.4352 41.4352 30.4352 40.4352 36.4352 40.4352 46.4352 46.4352 36.4352 40.4352 46.4352 30.4352 34.4352 43.4352 43.4352 38.4352 91.4352 31.4352 33.4352 35.4352 34.4352 34.4352 48.4352 37.4352 40.4352 38.4352 46.4352 40.4352 30.4352 43.4352 36.4352 28.4352 52.4352 44.4352 106.435 53.4352 61.4352 68.4352 645.435 116.435 660.435 28.4352 28.4352 30.4352 381.435 85.4352 230.435 34.4352 45.4352 48.4352 167.435 118.435 28.4352 39.4352 33.4352 82.4352 34.4352 44.4352 67.4352 128.435 28.4352 28.4352 28.4352 161.435 52.4352 28.4352 37.4352 33.4352 74.4352 43.4352 31.4352 28.4352 28.4352 28.4352 28.4352 28.4352 28.4352 28.4352 28.4352 28.4352 28.4352 28.4352 28.4352 37.4352 38.4352 28.4352 28.4352 28.4352 28.4352 28.4352 57.4352 38.4352 28.4352 28.4352 28.4352 59.4352 65.4352 28.4352 28.4352 28.4352 28.4352 251.435 36.4352 34.4352 294.435 28.4352 119.435 208.435 34.4352 28.4352 109.435 87.4352 290.435 51.4352 38.4352 64.4352 49.4352 140.435 201.435 145.435 308.435 94.4352 328.435 189.435 167.435 28.4352 28.4352 44.4352 40.4352 56.4352 148.435 72.4352 163.435 334.435 28.4352 28.4352 52.4352 53.4352 28.4352 28.4352 28.4352 28.4352 184.435 28.4352 61.4352 28.4352 28.4352 73.4352 208.435 300.435 98.4352 105.435 120.435 210.435 28.4352 82.4352 234.435 258.435 193.435 38.4352 78.4352 68.4352 28.4352 67.4352 28.4352 28.4352 28.4352 113.435 61.4352 112.435 88.4352 46.4352 28.4352 109.435 80.4352 37.4352 160.435 28.4352 40.4352 78.4352 80.4352 46.4352 44.4352 28.4352 28.4352 28.4352 46.4352 38.4352 36.4352 30.4352 34.4352 160.435 58.4352 36.4352 44.4352 34.4352 33.4352 40.4352 46.4352 34.4352 29.4352 31.4352 38.4352 37.4352 32.4352 33.4352 34.4352 36.4352 42.4352 35.4352 30.4352 37.4352 41.4352 35.4352 120.435 28.4352 33.4352 123.435 64.4352 155.435 57.4352 28.4352 191.435 30.4352 36.4352 28.4352 28.4352 28.4352 28.4352 28.4352 29.4352 30.4352 54.4352 42.4352 44.4352 196.435 28.4352 28.4352 28.4352 28.4352 28.4352 28.4352 28.4352 28.4352 28.4352 28.4352 76.4352 68.4352 56.4352 84.4352 56.4352 40.4352 28.4352 28.4352 28.4352 28.4352 47.4352 86.4352 52.4352 70.4352 28.4352 40.4352 28.4352 28.4352 109.435 148.435 88.4352 76.4352 49.4352 100.435 76.4352 88.4352 88.4352 46.4352 277.435 28.4352 28.4352 44.4352 37.4352 28.4352 28.4352 28.4352 303.435 47.4352 48.4352 28.4352 63.4352 120.435 223.435 308.435 128.435 32.4352 60.4352 78.4352 28.4352 48.4352 123.435 28.4352 28.4352 28.4352 28.4352 28.4352 28.4352 28.4352 34.4352 48.4352 130.435 185.435 234.435 325.435 28.4352 28.4352 96.4352 28.4352 28.4352 172.435 76.4352 124.435 148.435 328.435 46.4352 32.4352 28.4352 28.4352 28.4352 28.4352 28.4352 92.4352 28.4352 318.435 69.4352 94.4352 28.4352 171.435 38.4352 49.4352 82.4352 28.4352 50.4352 67.4352 30.4352 31.4352 38.4352 49.4352 48.4352 35.4352 32.4352 38.4352 37.4352 31.4352 32.4352 47.4352 29.4352 577.435 42.4352 56.4352 248.435 28.4352 28.4352 263.435 397.435 36.4352 382.435 50.4352 58.4352 33.4352 398.435 28.4352 28.4352 28.4352 30.4352 44.4352 28.4352 28.4352 28.4352 28.4352 28.4352 34.4352 28.4352 28.4352 28.4352 28.4352 28.4352 28.4352 28.4352 28.4352 28.4352 28.4352 28.4352 28.4352 28.4352 28.4352 28.4352 50.4352 32.4352 68.4352 43.4352 44.4352 55.4352 40.4352 60.4352 42.4352 28.4352 31.4352 65.4352 138.435 138.435 28.4352 33.4352 28.4352 28.4352 46.4352 147.435 60.4352 60.4352 76.4352 63.4352 36.4352 28.4352 28.4352 48.4352 44.4352 44.4352 73.4352 72.4352 76.4352 28.4352 36.4352 137.435 28.4352 46.4352 28.4352 28.4352 66.4352 46.4352 133.435 139.435 28.4352 48.4352 112.435 43.4352 33.4352 31.4352 28.4352 28.4352 33.4352 38.4352 33.4352 32.4352 34.4352 56.4352 32.4352 32.4352 36.4352 32.4352 28.4352 30.4352 35.4352 32.4352 28.4352 42.4352 31.4352 30.4352 34.4352 201.435 36.4352 34.4352 49.4352 35.4352 28.4352 28.4352 33.4352 42.4352 37.4352 28.4352 28.4352 28.4352 28.4352 28.4352 28.4352 28.4352 58.4352 28.4352 28.4352 37.4352 28.4352 28.4352 28.4352 72.4352 28.4352 58.4352 28.4352 237.435 28.4352 218.435 228.435 28.4352 122.435 82.4352 28.4352 37.4352 34.4352 44.4352 68.4352 58.4352 68.4352 28.4352 238.435 188.435 75.4352 136.435 56.4352 79.4352 58.4352 28.4352 110.435 54.4352 241.435 28.4352 64.4352 43.4352 92.4352 186.435 64.4352 28.4352 259.435 91.4352 186.435 30.4352 28.4352 152.435 28.4352 199.435 100.435 28.4352 38.4352 144.435 28.4352 55.4352 36.4352 28.4352 28.4352 28.4352 48.4352 40.4352 34.4352 34.4352 380.435 32.4352 32.4352 28.4352 28.4352 80.4352 30.4352 30.4352 43.4352 28.4352 28.4352 30.4352 34.4352 39.4352 28.4352 98.4352 50.4352 28.4352 48.4352 42.4352 47.4352 36.4352 31.4352 28.4352 28.4352 28.4352 28.4352 28.4352 28.4352 28.4352 28.4352 28.4352 28.4352 84.4352 36.4352 28.4352 63.4352 50.4352 43.4352 78.4352 28.4352 36.4352 37.4352 271.435 64.4352 41.4352 48.4352 212.435 28.4352 124.435 182.435 28.4352 40.4352 28.4352 28.4352 73.4352 49.4352 85.4352 28.4352 88.4352 79.4352 44.4352 147.435 64.4352 83.4352 55.4352 78.4352 28.4352 28.4352 94.4352 34.4352 28.4352 28.4352 74.4352 31.4352 138.435 28.4352 38.4352 37.4352 41.4352 37.4352 28.4352 108.435 28.4352 28.4352 28.4352 28.4352 28.4352 28.4352 28.4352 28.4352 28.4352 28.4352 28.4352 228.435 411.435 36.4352 31.4352 42.4352 28.4352 46.4352 44.4352 32.4352 37.4352 733.435 28.4352 47.4352 72.4352 32.4352 28.4352 77.4352 61.4352 118.435 28.4352 94.4352 46.4352 44.4352 56.4352 28.4352 182.435 28.4352 221.435 172.435 28.4352 108.435 109.435 109.435 28.4352 28.4352 68.4352 28.4352 66.4352 34.4352 29.4352 33.4352 40.4352 43.4352 32.4352 32.4352 49.4352 30.4352 81.4352 103.435 78.4352 136.435 28.4352 45.4352 30.4352 30.4352 28.4352 32.4352 34.4352 28.4352 52.4352 76.4352 36.4352 28.4352 28.4352 28.4352 28.4352 75.4352 71.4352 193.435 113.435 28.4352 116.435 288.435 28.4352 41.4352 92.4352 182.435 91.4352 172.435 148.435 88.4352 273.435 49.4352 28.4352 28.4352 28.4352 28.4352 54.4352 28.4352 55.4352 104.435 43.4352 40.4352 52.4352 44.4352 28.4352 58.4352 30.4352 33.4352 34.4352 30.4352 61.4352 32.4352 54.4352 29.4352 31.4352 28.4352 28.4352 28.4352 28.4352 28.4352 28.4352 28.4352 35.4352 28.4352 97.4352 28.4352 28.4352 28.4352 50.4352 64.4352 64.4352 217.435 28.4352 40.4352 28.4352 28.4352 28.4352 30.4352 160.435 28.4352 44.4352 57.4352 72.4352 28.4352 28.4352 28.4352 50.4352 48.4352 31.4352 
rewards of Offsets elements: 1272 17 34 40 1194 16 5 16 13 0 0 234 24 11 60 722 454 3 2 24 421 221 8 2 2 9 282 263 30 21 34 36 19 18 60 42 39 163 35 65 18 81 648 15 414 111 3 18 50 53 228 46 11 90 271 47 354 75 61 156 20 25 206 132 25 120 135 426 154 220 70 20 40 45 114 158 90 238 294 208 306 80 21 81 0 0 170 27 45 116 0 0 20 18 54 126 49 99 755 160 309 221 130 838 12 24 15 44 39 12 86 34 0 823 0 12 0 0 143 20 0 0 0 0 0 0 0 0 0 0 0 330 320 144 48 76 15 84 84 20 0 0 21 21 112 361 126 234 56 70 2 8 156 126 125 66 56 22 138 0 0 0 120 7 11 120 240 21 24 44 138 582 16 0 0 263 24 68 5 17 36 39 78 52 0 0 0 15 88 0 26 0 48 8 22 10 66 13 2 12 8 12 18 18 8 12 18 2 6 15 15 10 63 3 5 7 6 6 20 9 12 10 18 12 2 15 8 0 24 16 78 25 33 40 617 88 632 0 0 2 353 57 202 6 17 20 139 90 0 11 5 54 6 16 39 100 0 0 0 133 24 0 9 5 46 15 3 0 0 0 0 0 0 0 0 0 0 0 0 9 10 0 0 0 0 0 29 10 0 0 0 31 37 0 0 0 0 223 8 6 266 0 91 180 6 0 81 59 262 23 10 36 21 112 173 117 280 66 300 161 139 0 0 16 12 28 120 44 135 306 0 0 24 25 0 0 0 0 156 0 33 0 0 45 180 272 70 77 92 182 0 54 206 230 165 10 50 40 0 39 0 0 0 85 33 84 60 18 0 81 52 9 132 0 12 50 52 18 16 0 0 0 18 10 8 2 6 132 30 8 16 6 5 12 18 6 1 3 10 9 4 5 6 8 14 7 2 9 13 7 92 0 5 95 36 127 29 0 163 2 8 0 0 0 0 0 1 2 26 14 16 168 0 0 0 0 0 0 0 0 0 0 48 40 28 56 28 12 0 0 0 0 19 58 24 42 0 12 0 0 81 120 60 48 21 72 48 60 60 18 249 0 0 16 9 0 0 0 275 19 20 0 35 92 195 280 100 4 32 50 0 20 95 0 0 0 0 0 0 0 6 20 102 157 206 297 0 0 68 0 0 144 48 96 120 300 18 4 0 0 0 0 0 64 0 290 41 66 0 143 10 21 54 0 22 39 2 3 10 21 20 7 4 10 9 3 4 19 1 549 14 28 220 0 0 235 369 8 354 22 30 5 370 0 0 0 2 16 0 0 0 0 0 6 0 0 0 0 0 0 0 0 0 0 0 0 0 0 0 22 4 40 15 16 27 12 32 14 0 3 37 110 110 0 5 0 0 18 119 32 32 48 35 8 0 0 20 16 16 45 44 48 0 8 109 0 18 0 0 38 18 105 111 0 20 84 15 5 3 0 0 5 10 5 4 6 28 4 4 8 4 0 2 7 4 0 14 3 2 6 173 8 6 21 7 0 0 5 14 9 0 0 0 0 0 0 0 30 0 0 9 0 0 0 44 0 30 0 209 0 190 200 0 94 54 0 9 6 16 40 30 40 0 210 160 47 108 28 51 30 0 82 26 213 0 36 15 64 158 36 0 231 63 158 2 0 124 0 171 72 0 10 116 0 27 8 0 0 0 20 12 6 6 352 4 4 0 0 52 2 2 15 0 0 2 6 11 0 70 22 0 20 14 19 8 3 0 0 0 0 0 0 0 0 0 0 56 8 0 35 22 15 50 0 8 9 243 36 13 20 184 0 96 154 0 12 0 0 45 21 57 0 60 51 16 119 36 55 27 50 0 0 66 6 0 0 46 3 110 0 10 9 13 9 0 80 0 0 0 0 0 0 0 0 0 0 0 200 383 8 3 14 0 18 16 4 9 705 0 19 44 4 0 49 33 90 0 66 18 16 28 0 154 0 193 144 0 80 81 81 0 0 40 0 38 6 1 5 12 15 4 4 21 2 53 75 50 108 0 17 2 2 0 4 6 0 24 48 8 0 0 0 0 47 43 165 85 0 88 260 0 13 64 154 63 144 120 60 245 21 0 0 0 0 26 0 27 76 15 12 24 16 0 30 2 5 6 2 33 4 26 1 3 0 0 0 0 0 0 0 7 0 69 0 0 0 22 36 36 189 0 12 0 0 0 2 132 0 16 29 44 0 0 0 22 20 3 Printing Sanity3
offset_index value977
offset list size977
reward size977
potential size977
-----------------------------------------------------------------------------------------------------------------------------------------------------------------------------------------------------

DRAM Statistics
 CHANNEL 0
 RQ ROW_BUFFER_HIT:      86150  ROW_BUFFER_MISS:     316559
 DBUS_CONGESTED:        432
 WQ ROW_BUFFER_HIT:      14796  ROW_BUFFER_MISS:      58819  FULL:          0

 AVG_CONGESTED_CYCLE: 4
 All warmup complete: 2
Channel 0 Bank busy for read cycles: 0
Channel 0 Bank busy for write cycles: 0
Channel 0
Rank 0
0banks busy for read cycles: 239690680
0banks busy for write cycles: 35654
1banks busy for read cycles: 11983628
1banks busy for write cycles: 5680296
2banks busy for read cycles: 13163433
2banks busy for write cycles: 1604294
3banks busy for read cycles: 1003532
3banks busy for write cycles: 410179
4banks busy for read cycles: 544146
4banks busy for write cycles: 177939
5banks busy for read cycles: 438201
5banks busy for write cycles: 120327
6banks busy for read cycles: 358070
6banks busy for write cycles: 111316
7banks busy for read cycles: 240511
7banks busy for write cycles: 131586
8banks busy for read cycles: 284865
8banks busy for write cycles: 221838

CPU 0 Branch Prediction Accuracy: 99.7822% MPKI: 0.397295 Average ROB Occupancy at Mispredict: 18.8409
Branch types
NOT_BRANCH: 163510874 81.7554%
BRANCH_DIRECT_JUMP: 2284609 1.1423%
BRANCH_INDIRECT: 12524838 6.26242%
BRANCH_CONDITIONAL: 14124222 7.06211%
BRANCH_DIRECT_CALL: 3327862 1.66393%
BRANCH_INDIRECT_CALL: 449728 0.224864%
BRANCH_RETURN: 3777619 1.88881%
BRANCH_OTHER: 0 0%

DRAM PAGES: 1048576
Allocated PAGES: 6265
