
*** ChampSim Multicore Out-of-Order Simulator ***

Warmup Instructions: 50000000
Simulation Instructions: 200000000
Number of CPUs: 1
LLC sets: 2048
LLC ways: 16
Off-chip DRAM Size: 4096 MB Channels: 1 Width: 64-bit Data Rate: 6400 MT/s
CPU 0 runs traces/spec2k17/srv_28.champsimtrace.xz
.xz
BTB has LRU replacement policy
ITLB has LRU replacement policy
DTLB has LRU replacement policy
STLB has LRU replacement policy
L1I has LRU replacement policy
L1D has LRU replacement policy
Initialize SRRIP state for L2C
Initialize DRRIP state for LLC
Offsets elements: 
Potential of Offsets elements: 
rewards of Offsets elements: 
Printing Sanity1
offset list size1076
Offsets elements: 
Potential of Offsets elements: 
rewards of Offsets elements: 480 147 102 154 219 72 1581 2030 86 6 16 0 12 192 171 146 120 18 16 103 120 112 236 45 0 0 0 0 0 0 21 98 312 283 52 13 32 794 90 5 11 84 276 211 64 44 20 60 0 0 0 0 0 222 0 0 0 39 208 0 0 4 0 48 12 10 44 29 14 3 8 10 6 620 18 30 49 10 1 3 21 40 30 10 14 8 5 10 4 4 25 30 6 7 10 18 6 26 143 6 2 30 17 651 2 0 0 300 0 230 430 740 752 49 52 261 20 7 306 6 0 0 1 0 18 4 50 0 0 0 0 0 8 0 0 2 2 2 8 35 6 61 21 57 15 33 0 0 306 30 38 120 0 402 0 0 2 16 0 342 0 0 0 0 212 245 30 36 42 76 30 24 8 21 82 79 0 0 92 144 105 24 0 0 46 34 0 0 0 74 46 38 32 156 377 43 220 0 19 9 0 0 0 0 48 96 156 91 21 50 110 78 361 96 160 72 54 285 204 288 306 80 12 18 0 21 56 32 52 256 216 48 45 156 300 96 90 770 12 38 6 108 0 11 18 133 0 0 27 0 0 0 0 140 104 104 28 72 84 161 57 234 60 12 21 90 27 0 0 226 113 91 133 22 34 0 0 51 0 65 152 116 52 126 84 220 2 0 70 96 0 0 0 0 70 36 52 60 16 4 0 0 0 48 554 782 380 0 0 0 0 0 0 135 0 0 10 10 1 0 0 4 4 10 15 6 14 18 20 6 18 9 42 12 4 20 11 0 0 2 6 4 25 54 522 9 4 14 39 99 7 1 0 0 0 0 26 62 18 18 45 0 0 13 0 0 4 2 16 0 0 22 20 28 22 0 20 0 29 83 67 143 168 0 0 8 5 40 99 56 65 20 48 12 0 36 0 28 80 35 48 20 18 0 0 42 4 9 0 281 13 0 0 0 40 51 64 80 102 12 9 0 55 80 169 35 0 0 0 252 6 16 0 0 0 322 98 13 0 0 234 0 0 0 2 0 0 48 0 0 1 4 4 5 4 40 20 21 4 6 6 91 86 4 12 14 16 8 0 18 51 4 0 0 0 0 0 0 0 0 0 0 74 0 0 22 0 0 1 24 12 0 0 0 224 44 56 5 22 6 0 0 0 4 0 30 49 160 144 0 12 153 80 0 9 60 35 76 0 0 8 75 225 154 114 51 108 0 66 94 0 96 48 0 0 6 0 384 0 56 90 84 70 120 82 0 0 132 126 52 208 144 52 0 0 24 154 100 217 2 0 30 48 0 0 19 21 0 51 469 34 0 25 0 131 12 18 9 4 2 0 1 12 8 48 42 0 3 6 6 368 44 14 7 38 0 4 2 3 6 20 0 12 0 0 0 0 0 0 0 0 0 0 0 0 0 30 261 79 36 3 2 219 77 108 120 60 60 68 124 63 0 0 21 45 68 72 81 109 100 17 0 0 57 78 24 47 6 0 39 0 88 196 51 60 42 40 91 140 36 0 0 23 32 266 60 6 0 13 12 194 16 0 0 88 0 0 18 0 0 2 8 8 41 239 5 4 1 30 4 6 2 58 0 39 0 20 20 0 0 0 50 75 19 0 0 0 0 0 0 48 0 0 44 27 0 0 9 0 0 0 0 4 21 86 14 22 168 112 0 75 170 182 282 120 0 180 52 54 200 28 12 3 0 0 90 24 50 235 0 182 202 195 30 0 76 0 0 12 0 36 117 191 24 23 0 0 13 12 20 8 12 7 42 0 10 16 10 7 13 0 1 0 6 16 81 0 0 10 2 0 0 1 9 13 16 0 0 0 0 0 18 20 0 0 17 3 0 4 4 24 0 40 10 30 90 144 95 0 12 31 120 14 18 36 53 0 0 30 0 135 0 105 0 168 21 15 232 0 0 0 0 0 0 0 0 0 24 40 20 26 24 6 8 0 2 14 0 300 6 24 56 6 0 0 0 0 0 0 0 0 0 0 0 0 0 0 0 0 0 20 51 27 14 20 42 64 60 150 192 0 12 84 0 24 21 2 0 33 48 9 42 95 111 12 8 12 6 3 2 0 12 727 69 0 0 4 22 32 8 17 16 0 0 0 0 0 0 0 374 0 22 0 0 65 60 0 54 0 114 312 119 36 0 28 0 163 66 54 4 0 0 3 3 3 474 6 6 10 6 34 31 6 4 0 56 24 0 0 0 0 9 14 4 84 0 0 0 67 64 16 4 0 0 18 20 2 24 10 13 2 3 4 4 18 0 6 52 32 26 4 0 0 0 0 0 0 0 0 0 24 75 13 27 32 21 48 9 16 50 0 12 0 0 9 65 22 0 108 2 46 9 57 3 6 4 0 0 42 32 0 0 0 110 0 0 0 0 0 0 0 435 0 0 0 0 0 0 0 0 0 0 0 0 0 0 0 0 0 0 32 0 0 0 0 0 
Printing Sanity2
Heartbeat CPU 0 instructions: 10000001 cycles: 2812110 heartbeat IPC: 3.55605 cumulative IPC: 3.55605 (Simulation time: 0 hr 0 min 24 sec) 
Heartbeat CPU 0 instructions: 20000003 cycles: 5626211 heartbeat IPC: 3.55353 cumulative IPC: 3.55479 (Simulation time: 0 hr 0 min 49 sec) 
Heartbeat CPU 0 instructions: 30000003 cycles: 8438058 heartbeat IPC: 3.55638 cumulative IPC: 3.55532 (Simulation time: 0 hr 1 min 14 sec) 
*** Reached end of trace for Core: 0 Repeating trace: traces/spec2k17/srv_28.champsimtrace.xz
Heartbeat CPU 0 instructions: 40000003 cycles: 11249275 heartbeat IPC: 3.55718 cumulative IPC: 3.55578 (Simulation time: 0 hr 1 min 38 sec) 
Heartbeat CPU 0 instructions: 50000002 cycles: 14061489 heartbeat IPC: 3.55592 cumulative IPC: 3.55581 (Simulation time: 0 hr 2 min 3 sec) 

Warmup complete CPU 0 instructions: 50000002 cycles: 14061489 (Simulation time: 0 hr 2 min 3 sec) 

Heartbeat CPU 0 instructions: 60000000 cycles: 27953845 heartbeat IPC: 0.71982 cumulative IPC: 0.71982 (Simulation time: 0 hr 2 min 34 sec) 
*** Reached end of trace for Core: 0 Repeating trace: traces/spec2k17/srv_28.champsimtrace.xz
Heartbeat CPU 0 instructions: 70000003 cycles: 41978739 heartbeat IPC: 0.713018 cumulative IPC: 0.716403 (Simulation time: 0 hr 3 min 5 sec) 
Heartbeat CPU 0 instructions: 80000000 cycles: 55912257 heartbeat IPC: 0.717694 cumulative IPC: 0.716833 (Simulation time: 0 hr 3 min 36 sec) 
Heartbeat CPU 0 instructions: 90000001 cycles: 69697883 heartbeat IPC: 0.725393 cumulative IPC: 0.718954 (Simulation time: 0 hr 4 min 7 sec) 
*** Reached end of trace for Core: 0 Repeating trace: traces/spec2k17/srv_28.champsimtrace.xz
Heartbeat CPU 0 instructions: 100000000 cycles: 83745234 heartbeat IPC: 0.711878 cumulative IPC: 0.717527 (Simulation time: 0 hr 4 min 38 sec) 
Heartbeat CPU 0 instructions: 110000000 cycles: 97433519 heartbeat IPC: 0.730552 cumulative IPC: 0.719666 (Simulation time: 0 hr 5 min 9 sec) 
Heartbeat CPU 0 instructions: 120000001 cycles: 111435502 heartbeat IPC: 0.714185 cumulative IPC: 0.718878 (Simulation time: 0 hr 5 min 40 sec) 
*** Reached end of trace for Core: 0 Repeating trace: traces/spec2k17/srv_28.champsimtrace.xz
Heartbeat CPU 0 instructions: 130000000 cycles: 125336333 heartbeat IPC: 0.719381 cumulative IPC: 0.718941 (Simulation time: 0 hr 6 min 11 sec) 
Heartbeat CPU 0 instructions: 140000001 cycles: 139014424 heartbeat IPC: 0.731096 cumulative IPC: 0.720271 (Simulation time: 0 hr 6 min 42 sec) 
Heartbeat CPU 0 instructions: 150000001 cycles: 153150712 heartbeat IPC: 0.707399 cumulative IPC: 0.718963 (Simulation time: 0 hr 7 min 13 sec) 
*** Reached end of trace for Core: 0 Repeating trace: traces/spec2k17/srv_28.champsimtrace.xz
Heartbeat CPU 0 instructions: 160000000 cycles: 167087878 heartbeat IPC: 0.717506 cumulative IPC: 0.71883 (Simulation time: 0 hr 7 min 44 sec) 
Heartbeat CPU 0 instructions: 170000003 cycles: 180721515 heartbeat IPC: 0.73348 cumulative IPC: 0.720029 (Simulation time: 0 hr 8 min 15 sec) 
Heartbeat CPU 0 instructions: 180000001 cycles: 194820748 heartbeat IPC: 0.709258 cumulative IPC: 0.719189 (Simulation time: 0 hr 8 min 46 sec) 
Heartbeat CPU 0 instructions: 190000001 cycles: 208539672 heartbeat IPC: 0.72892 cumulative IPC: 0.719875 (Simulation time: 0 hr 9 min 18 sec) 
*** Reached end of trace for Core: 0 Repeating trace: traces/spec2k17/srv_28.champsimtrace.xz
Heartbeat CPU 0 instructions: 200000000 cycles: 222414520 heartbeat IPC: 0.720729 cumulative IPC: 0.719932 (Simulation time: 0 hr 9 min 49 sec) 
Heartbeat CPU 0 instructions: 210000001 cycles: 236364302 heartbeat IPC: 0.716857 cumulative IPC: 0.719739 (Simulation time: 0 hr 10 min 20 sec) 
Heartbeat CPU 0 instructions: 220000000 cycles: 250156731 heartbeat IPC: 0.725035 cumulative IPC: 0.720048 (Simulation time: 0 hr 10 min 51 sec) 
*** Reached end of trace for Core: 0 Repeating trace: traces/spec2k17/srv_28.champsimtrace.xz
Heartbeat CPU 0 instructions: 230000001 cycles: 264131568 heartbeat IPC: 0.715572 cumulative IPC: 0.719798 (Simulation time: 0 hr 11 min 22 sec) 
Heartbeat CPU 0 instructions: 240000003 cycles: 278022991 heartbeat IPC: 0.719869 cumulative IPC: 0.719802 (Simulation time: 0 hr 11 min 53 sec) 
Heartbeat CPU 0 instructions: 250000001 cycles: 291819795 heartbeat IPC: 0.724805 cumulative IPC: 0.72005 (Simulation time: 0 hr 12 min 23 sec) 
Finished CPU 0 instructions: 200000001 cycles: 277758307 cumulative IPC: 0.72005 (Simulation time: 0 hr 12 min 23 sec) 

ChampSim completed all CPUs

Region of Interest Statistics

CPU 0 cumulative IPC: 0.72005 instructions: 200000001 cycles: 277758307
ITLB TOTAL     ACCESS:   32447608  HIT:   32341675  MISS:     105933  HIT %:    99.6735  MISS %:   0.326474   MPKI: 0.529665
ITLB LOAD TRANSLATION ACCESS:   32447608  HIT:   32341675  MISS:     105933  HIT %:    99.6735  MISS %:   0.326474   MPKI: 0.529665
ITLB PREFETCH  REQUESTED:          0  ISSUED:          0  USEFUL:          0  USELESS:          0
ITLB USEFUL LOAD PREFETCHES:          0 PREFETCH ISSUED TO LOWER LEVEL:          0  ACCURACY: -nan
ITLB TIMELY PREFETCHES:          0 LATE PREFETCHES: 0 DROPPED PREFETCHES: 0
ITLB PREFETCHES SAME FILL-ORIGIN LEVEL: 0 DIFFERENT FILL-ORIGIN LEVEL: 0
ITLB AVERAGE MISS LATENCY: 10.8188 cycles
ITLB RQ	ACCESS:   38246863	FORWARD:          0	MERGED:    5764734	TO_CACHE:   32482129

DTLB TOTAL     ACCESS:   40729968  HIT:   38931398  MISS:    1798570  HIT %:    95.5842  MISS %:    4.41584   MPKI: 8.99285
DTLB LOAD TRANSLATION ACCESS:   40729968  HIT:   38931398  MISS:    1798570  HIT %:    95.5842  MISS %:    4.41584   MPKI: 8.99285
DTLB PREFETCH  REQUESTED:          0  ISSUED:          0  USEFUL:          0  USELESS:          0
DTLB USEFUL LOAD PREFETCHES:          0 PREFETCH ISSUED TO LOWER LEVEL:          0  ACCURACY: -nan
DTLB TIMELY PREFETCHES:          0 LATE PREFETCHES: 0 DROPPED PREFETCHES: 0
DTLB PREFETCHES SAME FILL-ORIGIN LEVEL: 0 DIFFERENT FILL-ORIGIN LEVEL: 0
DTLB AVERAGE MISS LATENCY: 10.8735 cycles
DTLB RQ	ACCESS:   54730667	FORWARD:          0	MERGED:   13799451	TO_CACHE:   40931216

STLB TOTAL     ACCESS:   25721057  HIT:   25633322  MISS:      87735  HIT %:    99.6589  MISS %:   0.341102   MPKI: 0.438675
STLB LOAD TRANSLATION ACCESS:    1904503  HIT:    1818242  MISS:      86261  HIT %:    95.4707  MISS %:    4.52932   MPKI: 0.431305
STLB TRANSLATION FROM L1D PREFETCHER ACCESS:   23816554  HIT:   23815080  MISS:       1474  HIT %:    99.9938  MISS %: 0.00618897   MPKI: 0.00737
STLB PREFETCH  REQUESTED:          0  ISSUED:          0  USEFUL:       1093  USELESS:        382
STLB USEFUL LOAD PREFETCHES:       1093 PREFETCH ISSUED TO LOWER LEVEL:          0  ACCURACY: inf
STLB TIMELY PREFETCHES:       1093 LATE PREFETCHES: 260 DROPPED PREFETCHES: 2277
STLB PREFETCHES SAME FILL-ORIGIN LEVEL: 0 DIFFERENT FILL-ORIGIN LEVEL: 0
STLB AVERAGE MISS LATENCY: 40.9551 cycles
STLB RQ	ACCESS:   31031818	FORWARD:          0	MERGED:    5308195	TO_CACHE:   25723623

STLB Hit, L1D data hit: 0
STLB Hit, L2C data hit: 0
STLB Hit, LLC data hit: 0
STLB Hit, LLC data miss: 0
STLB STLB hints to L2: 0
L1D TOTAL     ACCESS:   83041141  HIT:   82286777  MISS:     754364  HIT %:    99.0916  MISS %:   0.908422   MPKI: 3.77182
L1D LOAD      ACCESS:   30680787  HIT:   30312971  MISS:     367816  HIT %:    98.8012  MISS %:    1.19885   MPKI: 1.83908
L1D RFO       ACCESS:   23407639  HIT:   23270958  MISS:     136681  HIT %:    99.4161  MISS %:   0.583916   MPKI: 0.683405
L1D PREFETCH  ACCESS:   28952715  HIT:   28702848  MISS:     249867  HIT %:     99.137  MISS %:   0.863018   MPKI: 1.24933
AGUS PREFETCH L1 MISS: 0
L1D PREFETCH  REQUESTED:   59927272  ISSUED:   59927065  USEFUL:      42969  USELESS:     206865
L1D USEFUL LOAD PREFETCHES:      42969 PREFETCH ISSUED TO LOWER LEVEL:     299016  ACCURACY: 14.3701
L1D TIMELY PREFETCHES:      42969 LATE PREFETCHES: 48798 DROPPED PREFETCHES: 2277
L1D PREFETCHES SAME FILL-ORIGIN LEVEL: 299016 DIFFERENT FILL-ORIGIN LEVEL: 0
L1D AVERAGE MISS LATENCY: 9.90635e+06 cycles
L1D RQ	ACCESS:   49534631	FORWARD:          0	MERGED:   18614545	TO_CACHE:   30799953
L1D WQ	ACCESS:   24183739	FORWARD:     181174	MERGED:     253025	TO_CACHE:   23930714
L1D PQ	ACCESS:   30799750	FORWARD:          0	MERGED:    1611394	TO_CACHE:   29127315

L1D UNIQUE REGIONS ACCESSED: 0
L1D REGIONS CONFLICTS: 0
L1D Cross Page Prefetch Requests: 566172
L1D Same Page Prefetch Requests: 37350093
L1D ROI Sum of L1D PQ occupancy: 373086467
L1D PREFETCHES PUSHED FROM L2C: 0
L1I TOTAL     ACCESS:   38056102  HIT:   37423573  MISS:     632529  HIT %:    98.3379  MISS %:     1.6621   MPKI: 3.16264
L1I LOAD      ACCESS:   38056102  HIT:   37423573  MISS:     632529  HIT %:    98.3379  MISS %:     1.6621   MPKI: 3.16264
L1I PREFETCH  REQUESTED:          0  ISSUED:          0  USEFUL:          0  USELESS:          0
L1I USEFUL LOAD PREFETCHES:          0 PREFETCH ISSUED TO LOWER LEVEL:          0  ACCURACY: -nan
L1I TIMELY PREFETCHES:          0 LATE PREFETCHES: 0 DROPPED PREFETCHES: 0
L1I PREFETCHES SAME FILL-ORIGIN LEVEL: 0 DIFFERENT FILL-ORIGIN LEVEL: 0
L1I AVERAGE MISS LATENCY: 17.14 cycles
L1I RQ	ACCESS:   60429795	FORWARD:          0	MERGED:   22182932	TO_CACHE:   38246863

BTB TOTAL     ACCESS:   29604974  HIT:   27951083  MISS:    1653891  HIT %:    94.4135  MISS %:    5.58653   MPKI: 8.26945
BTB BRANCH_DIRECT_JUMP	ACCESS:    2284365  HIT:    2283256  MISS:       1109
BTB BRANCH_INDIRECT	ACCESS:   12536315  HIT:   11991074  MISS:     545241
BTB BRANCH_CONDITIONAL	ACCESS:    7228322  HIT:    7226630  MISS:       1692
BTB BRANCH_DIRECT_CALL	ACCESS:    3327463  HIT:    3324379  MISS:       3084
BTB BRANCH_INDIRECT_CALL	ACCESS:     450518  HIT:     257027  MISS:     193491
BTB BRANCH_RETURN	ACCESS:    3777991  HIT:    2868717  MISS:     909274
BTB BRANCH_OTHER ACCESS:          0  HIT:          0  MISS:          0

L2C TOTAL     ACCESS:    1705575  HIT:    1027794  MISS:     677781  HIT %:    60.2609  MISS %:    39.7391   MPKI: 3.3889
L2C LOAD      ACCESS:     951432  HIT:     654580  MISS:     296852  HIT %:    68.7995  MISS %:    31.2005   MPKI: 1.48426
L2C DATA LOAD MPKI: 1.28394
L2C INSTRUCTION LOAD MPKI: 0.200315
L2C RFO       ACCESS:     136329  HIT:      14974  MISS:     121355  HIT %:    10.9837  MISS %:    89.0163   MPKI: 0.606775
L2C PREFETCH  ACCESS:     299006  HIT:      72814  MISS:     226192  HIT %:     24.352  MISS %:     75.648   MPKI: 1.13096
AGUS PREFETCH L1 MISS: 0
L2C DATA PREFETCH MPKI: 1.13096
L2C INSTRUCTION PREFETCH MPKI: 0
L2C WRITEBACK ACCESS:     190306  HIT:     186568  MISS:       3738  HIT %:    98.0358  MISS %:    1.96421   MPKI: 0.01869
L2C LOAD TRANSLATION ACCESS:     123305  HIT:      93883  MISS:      29422  HIT %:    76.1388  MISS %:    23.8612   MPKI: 0.14711
L2C TRANSLATION FROM L1D PREFETCHER ACCESS:       5197  HIT:       4975  MISS:        222  HIT %:    95.7283  MISS %:     4.2717   MPKI: 0.00111
L2C PREFETCH  REQUESTED:          0  ISSUED:          0  USEFUL:       5138  USELESS:     221860
L2C USEFUL LOAD PREFETCHES:       5138 PREFETCH ISSUED TO LOWER LEVEL:     226192  ACCURACY: 2.27152
L2C TIMELY PREFETCHES:       5138 LATE PREFETCHES: 0 DROPPED PREFETCHES: 0
L2C PREFETCHES SAME FILL-ORIGIN LEVEL: 0 DIFFERENT FILL-ORIGIN LEVEL: 0
L2C AVERAGE MISS LATENCY: 129.788 cycles
L2C RQ	ACCESS:    1216379	FORWARD:          0	MERGED:          0	TO_CACHE:    1216263
L2C WQ	ACCESS:     190306	FORWARD:        126	MERGED:          0	TO_CACHE:     190306
L2C PQ	ACCESS:     299016	FORWARD:          0	MERGED:          0	TO_CACHE:     299006

L2C Instructions Evicting Data 36688
L2C Translations Evicting Data 26725
L2C Data Evicting Data 541403
L2C Instructions Evicting Instructions 1621
L2C Translations Evicting Instructions 1925
L2C Data Evicting Instructions 36574
L2C Instructions Evicting Translations 1754
L2C Translations Evicting Translations 994
L2C Data Evicting Translations 26359
L2C Dense regions hint from L2: 0
PSCL5 TOTAL     ACCESS:      90012  HIT:      90012  MISS:          0  HIT %:        100  MISS %:          0   MPKI: 0
PSCL5 LOAD TRANSLATION ACCESS:      86001  HIT:      86001  MISS:          0  HIT %:        100  MISS %:          0   MPKI: 0
PSCL5 TRANSLATION FROM L1D PREFETCHER ACCESS:       4011  HIT:       4011  MISS:          0  HIT %:        100  MISS %:          0   MPKI: 0
PSCL5 PREFETCH  REQUESTED:          0  ISSUED:          0  USEFUL:          0  USELESS:          0
PSCL5 USEFUL LOAD PREFETCHES:          0 PREFETCH ISSUED TO LOWER LEVEL:          0  ACCURACY: -nan
PSCL5 TIMELY PREFETCHES:          0 LATE PREFETCHES: 0 DROPPED PREFETCHES: 0
PSCL5 PREFETCHES SAME FILL-ORIGIN LEVEL: 0 DIFFERENT FILL-ORIGIN LEVEL: 0

PSCL4 TOTAL     ACCESS:      87474  HIT:      87375  MISS:         99  HIT %:    99.8868  MISS %:   0.113176   MPKI: 0.000495
PSCL4 LOAD TRANSLATION ACCESS:      84001  HIT:      83902  MISS:         99  HIT %:    99.8821  MISS %:   0.117856   MPKI: 0.000495
PSCL4 TRANSLATION FROM L1D PREFETCHER ACCESS:       3473  HIT:       3473  MISS:          0  HIT %:        100  MISS %:          0   MPKI: 0
PSCL4 PREFETCH  REQUESTED:          0  ISSUED:          0  USEFUL:          0  USELESS:          0
PSCL4 USEFUL LOAD PREFETCHES:          0 PREFETCH ISSUED TO LOWER LEVEL:          0  ACCURACY: -nan
PSCL4 TIMELY PREFETCHES:          0 LATE PREFETCHES: 0 DROPPED PREFETCHES: 0
PSCL4 PREFETCHES SAME FILL-ORIGIN LEVEL: 0 DIFFERENT FILL-ORIGIN LEVEL: 0

PSCL3 TOTAL     ACCESS:      89665  HIT:      89278  MISS:        387  HIT %:    99.5684  MISS %:   0.431607   MPKI: 0.001935
PSCL3 LOAD TRANSLATION ACCESS:      85716  HIT:      85329  MISS:        387  HIT %:    99.5485  MISS %:   0.451491   MPKI: 0.001935
PSCL3 TRANSLATION FROM L1D PREFETCHER ACCESS:       3949  HIT:       3949  MISS:          0  HIT %:        100  MISS %:          0   MPKI: 0
PSCL3 PREFETCH  REQUESTED:          0  ISSUED:          0  USEFUL:          0  USELESS:          0
PSCL3 USEFUL LOAD PREFETCHES:          0 PREFETCH ISSUED TO LOWER LEVEL:          0  ACCURACY: -nan
PSCL3 TIMELY PREFETCHES:          0 LATE PREFETCHES: 0 DROPPED PREFETCHES: 0
PSCL3 PREFETCHES SAME FILL-ORIGIN LEVEL: 0 DIFFERENT FILL-ORIGIN LEVEL: 0

PSCL2 TOTAL     ACCESS:      89003  HIT:      52015  MISS:      36988  HIT %:    58.4419  MISS %:    41.5581   MPKI: 0.18494
PSCL2 LOAD TRANSLATION ACCESS:      86171  HIT:      49183  MISS:      36988  HIT %:     57.076  MISS %:     42.924   MPKI: 0.18494
PSCL2 TRANSLATION FROM L1D PREFETCHER ACCESS:       2832  HIT:       2832  MISS:          0  HIT %:        100  MISS %:          0   MPKI: 0
PSCL2 PREFETCH  REQUESTED:          0  ISSUED:          0  USEFUL:          0  USELESS:          0
PSCL2 USEFUL LOAD PREFETCHES:          0 PREFETCH ISSUED TO LOWER LEVEL:          0  ACCURACY: -nan
PSCL2 TIMELY PREFETCHES:          0 LATE PREFETCHES: 0 DROPPED PREFETCHES: 0
PSCL2 PREFETCHES SAME FILL-ORIGIN LEVEL: 0 DIFFERENT FILL-ORIGIN LEVEL: 0

LLC TOTAL     ACCESS:     835820  HIT:     403993  MISS:     431827  HIT %:    48.3349  MISS %:    51.6651   MPKI: 2.15913
LLC LOAD      ACCESS:     296852  HIT:      98455  MISS:     198397  HIT %:    33.1664  MISS %:    66.8336   MPKI: 0.991985
LLC RFO       ACCESS:     121355  HIT:      52956  MISS:      68399  HIT %:    43.6373  MISS %:    56.3627   MPKI: 0.341995
LLC PREFETCH  ACCESS:     226192  HIT:      67223  MISS:     158969  HIT %:    29.7194  MISS %:    70.2806   MPKI: 0.794845
AGUS PREFETCH L1 MISS: 0
LLC WRITEBACK ACCESS:     161777  HIT:     159337  MISS:       2440  HIT %:    98.4918  MISS %:    1.50825   MPKI: 0.0122
LLC LOAD TRANSLATION ACCESS:      29422  HIT:      25894  MISS:       3528  HIT %:     88.009  MISS %:     11.991   MPKI: 0.01764
LLC TRANSLATION FROM L1D PREFETCHER ACCESS:        222  HIT:        128  MISS:         94  HIT %:    57.6577  MISS %:    42.3423   MPKI: 0.00047
LLC PREFETCH  REQUESTED:          0  ISSUED:          0  USEFUL:       2398  USELESS:     157860
LLC USEFUL LOAD PREFETCHES:       2398 PREFETCH ISSUED TO LOWER LEVEL:     158969  ACCURACY: 1.50847
LLC TIMELY PREFETCHES:       2398 LATE PREFETCHES: 0 DROPPED PREFETCHES: 0
LLC PREFETCHES SAME FILL-ORIGIN LEVEL: 0 DIFFERENT FILL-ORIGIN LEVEL: 0
LLC AVERAGE MISS LATENCY: 156.881 cycles
LLC RQ	ACCESS:     447851	FORWARD:          0	MERGED:          0	TO_CACHE:     447851
LLC WQ	ACCESS:     161777	FORWARD:          0	MERGED:          0	TO_CACHE:     161777
LLC PQ	ACCESS:     226192	FORWARD:          0	MERGED:          0	TO_CACHE:     226192

LLC Dense regions hint to LLC: 0

RAW hits: 2362621
Loads Generated: 51897257
Loads sent to L1D: 49534631
Stores Generated: 24183727
Stores sent to L1D: 24183739
Major fault: 0 Minor fault: 6201
Allocated PAGES: 6201
ucb ended
-----------------------------------------------------------------------------------------------------------------------------------------------------------------------------------------------------
Offsets elements: 1465996604963 -1465996606690 1727 1466015485274 -18880311 18880310 1 -1 -19004384 19004383 -1466015487030 1465996482729 -1465996480972 -332 1466015485606 -1466015483812 -1489 1465943166359 -1465943166659 1466015485602 -1466015487032 1466015487032 -1466015485610 371 1465996286806 -1465996287151 1465996296879 -9728 9728 -1465996286878 -292 328 -30 30 1465996482648 -1465996480891 1465996480891 -2 19004385 -19004256 123946 -1466015485274 1794 -1794 1466015485301 -19005405 -1465996480196 -1430 1465996287177 -1465996286806 1465996296533 -1465996296896 1465996296896 -13 19188706 -19198433 19198434 -1466015485613 1466015485612 -19198434 -1465996287178 1465943456453 53155686 -53430550 -1465943181569 1465943181569 53401854 -1465996583442 -2723 1465996608022 -1465996604928 1465996583201 -4200 2 -53397786 -1465943181555 -19 1465996490428 93033 -1465996583222 1465943181336 53423711 -25927 -53397784 53397783 -88929 88931 -88931 -1465996490189 -233 1465996583423 -53401854 53324226 -53324226 53316020 107691 -21727 18902038 -18906238 -90979 90975 18906243 -18906237 -7 -81759 -210432 -1465996287142 -34 1465996287178 29 8 -4 -3 -397 383 28 1465996611728 -1465996611760 20 -381 1465996287161 296278 -88918 117600 -28337 23376 18878433 -19198431 -1465996287144 1465996287144 -1465996287170 1465943456445 -1465943456040 1465996286764 19198431 -18980798 -14359 14358 2021 -16381 -1465996490195 1465996506577 -1465996506796 1465996506796 -16382 18995158 -54353315 54353316 -1466015485607 385 -386 1465996612139 -324960 7 19198423 -18996154 -1033 -1465996488411 1465996287170 6 201236 -201236 207451 18990971 -1466015485606 1466015485608 -18873468 18873469 -1466015485592 1465996583439 345 4961 -4962 18878431 -1466015485210 -16 1465996286796 -1465996287175 31 -33 34 376 1465996286766 -1465996287177 386 1466015485222 -19198432 207372 -207371 400 -400 -1466015485227 1465996611754 18873471 1466015485611 -1466015485205 -5 1466015485211 -18991070 117597 -324961 1465996287143 -52830725 -274864 72304023 -1466015485275 1466015485607 -1466015483813 -1465943166359 1466015485303 1429 1465996605291 -1465996605295 1465996603501 -1465996604963 1465943166332 -1465943166664 -1425 3219 332 1462 1465943166664 -1465943164867 1465996479424 53056519 -6142 -1465996506494 1465996479896 -1465996481626 -1462 1465996605295 -125094 -1465996478407 -1757 1425 1465996481221 -1465996479427 3 1465996478404 32767 -31745 19004384 19198435 380 1466015485233 -1466015485612 -1465996287179 -1465996286798 1465996611760 -315234 -9727 -1465996296905 -1465996286842 1466015485302 -1466015485302 -301 1465943428805 53176486 -53176486 -1465943428809 3222 -1797 1465943427015 53084159 -31746 19004386 -1466015485311 1465996286842 318121 -19004385 124074 1465996481222 -1465996479428 1465996479481 19004332 1465996286869 -52868092 -1465943430234 1465996298326 1466015485310 -1466015485602 1466015485601 -1466015485273 -1465996482646 1465996482647 1466015483812 -19004302 -1465996480999 -300 -72318943 53120510 -1465996288599 1465996288598 -1465996296879 -25 1465996606690 -1465996482648 1730 1465996479555 -1465996481344 193028 -183300 -1465996298326 1430 -8 4 -12 -19188699 -1465996296915 -19188697 19188696 -19188695 -9738 1465996612138 318123 -1465996605285 357 1465996583103 -1465996586197 1465943459175 53127120 -93130 114858 -53423711 53397786 -1465996579122 53308854 -1465996579339 1465943181555 233 1465996583190 -4071 25927 -53401984 73558 -18988002 18988003 -19198435 201216 90982 -1465996497574 37 -409 407 -6 -380 -1465996606794 -32 1465996611740 -1465996612131 1465996494531 -1465996494126 1465996286765 -1465996287143 1465943456419 53048356 -16380 16382 -1465996506577 -219 18995160 -54334083 -1465961151525 1465996611753 202269 -202274 1466015485598 -18997188 18997189 -88822 -1465996494635 1465996583802 -118757 123719 -1465996611740 1465996287176 -24 -1465996286792 -352 -1466015485211 1466015485225 -18873472 -1465996612138 1465996286776 324961 -117597 -1465996494508 53438631 -1465996603501 -3222 1465996482646 -53314557 -1465943168089 31746 -225795 1465943456449 -1465943454655 1465996506521 -1465996506521 1465996480197 125094 1020 -1465996479424 1465996285376 -1465996288598 1465996478407 1466015485614 -1466015485234 1465996286800 26 1466015485587 -19198436 324962 1465996296526 1465943428504 1465943428809 -1465943427015 1465996479427 -1465996481221 -1465943427012 1465996511171 1465996287174 -1395 3189 1466015483813 -1465996480917 194101 -194102 52868092 305 82 -1465996481299 -53120510 53120509 -1465996296904 -27 1489 126 193027 -193028 -11 -19188698 19188697 -1465996296916 -1465996586165 1465996289900 -1465996287176 -6839 -53148847 -1465943456438 1465996583460 -1465996583103 88932 -88933 -53308853 -1465943181336 1465996579120 1465996605266 -1465996605280 -4070 25928 53397784 18906238 81763 18906244 1465996488392 -1465996488021 1465996579003 1465996287179 408 -391 -1465996490194 1465996490194 -1465996506807 1465961132112 30136666 5238031 -5238031 24216807 -24216805 5221648 -24216807 18978778 -24216809 5238032 18978776 -24216808 -1465991268800 -1465996489067 -1465996612130 1465996488411 -201241 -6215 -1465996287184 1466015485609 -18873470 18873470 28337 -4961 -1465996606778 1465996287142 -1465996286766 1465996286767 1465996494163 -207372 1466015485227 -18873473 -1466015485609 336 -1465996286770 1465996611737 -1465996610341 -1764 53038089 -1465996494233 1465943181280 -1465943181581 -1465943164870 -1465996287173 -53056519 53024773 -1465996480890 1465996506494 -1465996506826 -1466015485276 1465996605300 1466015483814 19198436 1419 -1465996481224 193026 -1800 1465996514393 -216067 184322 -1465996481201 1465996287151 9727 315234 72056797 -1466015485301 -1465996604999 1498 -1790 1793 1465996285377 194047 -1465943428477 -1727 -1465996482647 1757 -1465996606720 -1465943428504 1465996288599 -1465996296605 1465996482616 -1466015487031 1465996480890 -1465996481222 1465996481304 -1465996479510 1465943166659 72318943 1465996296904 -1465996296533 -123946 -1465996481017 -1465996286805 -10 -1466015485611 -1466015485591 -296265 -18873474 -324962 1465996605299 -1465943456419 1465996612105 -1465996612124 -1465943184311 1465996493165 15373 -15373 -1465996490422 -1465996583190 72304022 -72304023 -318123 -1465996488358 1465996583538 -1465996583201 -15 -382 411 1465996578962 -1465996579367 -1465996286780 1465996583784 -89263 88918 23721 4962 217632 16383 1465996506576 1465996506807 -35351242 35334860 -20529763 39524921 -39524921 -39524920 39524922 -1465975960685 -39524922 -1465975960300 -1465996494626 18878432 1466015485610 -1466015485577 18873474 1465996494515 -1465996494149 22 207365 302 1465943179791 -1465943181280 -53438631 1465943164870 -1466015483810 -1465 -194049 -1465996286869 1465996512964 -1465996511174 1465943454655 53148846 -98469 98469 1465996480201 1799 -193026 -1465996286800 -378 1465996512971 -1465996512972 1465996481227 -1465996480848 1465996296905 -1465996612113 -1465996287174 -1465943428805 1465996606720 1465943428477 1465943430234 53052412 1465996479425 -1465996481218 36 -283 1465996287152 -52858364 1465996480972 -82 1466015487031 -1466015485239 -363 1465996481017 -126 -1466015485300 1797 1465996479833 -193027 -1465996287168 -1465996612139 1465996287158 296265 28696 -53155686 53148847 -1465996608022 1465943184311 53401984 -1465996579372 33 1465943181574 53401886 21857 -114857 -1465996579119 1465996583320 -73557 -18906239 -292191 1465996579374 -1465996286807 1465996612121 -28682 -296278 296623 112639 -1465996612105 16381 -1465996490414 1465961133218 35357208 -47163598 47163607 -47163607 47163609 -18978777 -28184831 -1465968321998 1465996506830 18978777 -47163609 28184832 -1465996506445 1465968321613 27965180 -324955 6215 18997188 -365 -1465996607174 1465996612136 -353 -18873471 18873472 -207364 -1465943181253 -1466015485603 301 27 -1465996480889 289785 -3219 -25604 -1465996480197 -1429 -1020 -1465996478404 1465996512973 -194048 1465996286798 -379 -1465996512964 1465996481218 124073 -318121 18880311 -18880310 -124074 -1465996482616 1465996285380 300 1465996296596 -1465996295107 -346 -53130237 1465996480889 -308 -1422 -1465996479429 -1466015485593 -296266 -1465996289899 2723 28664 1465943181217 -53308854 53308853 88933 114857 -114858 -53397783 -18902038 18902039 -18979797 1465996497608 292195 1465996487984 -1465996286772 -1465996578985 -411 379 1465996286780 324960 -117600 -1465996494521 -319999 -1465996287169 -1465996504396 1465996490037 -1465996490415 1465996490414 1465961149471 -2732652 38089989 -38089989 38073607 -1466015485599 1465996612130 -202275 19198425 -1466015485223 1465996488034 18990975 -18997189 -1465996488402 -1465996583457 -1465996286767 -410 -1465996611754 -1466015485206 -1465943456117 1790 53423710 1465996287173 1465943454652 25604 -19004386 -1799 1802 1466015483811 1466015485613 1465996480860 -1034 1465996512972 -184322 18873473 -1465996287153 1465996604999 1465996479510 -328 1465996481349 -1465996479555 -9 -19188706 -1465996296908 1465996296908 -9732 -19188703 19188701 -19188700 19188699 315226 -1465996612119 -1465996611767 -357 98 1465996579338 -1465996579352 -77758 81764 -90981 18906242 -18906243 -17 1465996606778 -1465996607176 1465996607177 -1465996494167 1465961099492 8297601 27093101 -27109484 -1465969397323 -27109482 27093100 -27093102 27109484 27109485 1465969397092 -1465996506808 1465967248693 29258115 -29258115 29258116 29241733 -18978775 -1466015485209 1466015485226 18901808 -18878432 -1465996607177 1466015485605 1466015485210 -1730 -18880312 1465996286841 1465943164867 -1465943456449 -1465996296901 -53052412 292 -19004330 -1465996480943 -1466015485585 1772 -1465943166296 -1447 -1466015485605 -1466015485601 1465943456433 53126990 1465996614861 -53401886 -88932 77758 1465996286779 -1465996578970 5 -403 -296623 207360 -23720 28682 -1465943456445 1465996504801 1465996490416 1465996490196 -35389237 35372856 -22079186 22079186 22079188 -22079187 3100411 -1465996506830 -22079188 -1466015485222 1465993406034 -1465993406420 1466015485599 -1465996488420 89167 410 1465996286791 1465943168089 1465996506826 -1465996505032 -1466015485310 19198432 -1465996480970 1465996286868 1395 -1465996480916 1465996480916 -1465996481044 1465996287162 1465943456081 -1465996490190 1465996583222 -93033 -14 1465996605280 -1465996605047 -406 -1465996578967 1465996494538 381 1465996583058 23375 -320000 1465996612131 18995159 -54370234 -1465961115373 -1465996286793 324955 -122686 -1466015485207 1465996488037 1466015487033 1465996287153 194102 -184374 1789 -1426 -1465996480855 1465996480981 -184448 -1465943456433 1465996612119 -28696 21825 -1465943181217 88930 1465996490423 -77628 99485 85964 -95180 18997218 -210430 348 -383 -1465996490440 245 1465996506417 1465961100784 35389642 -51512460 51512459 -51512550 -1465963973056 1465963973056 51512551 1465963972671 -18978778 -1465996506831 122686 -1466015485598 1466015485600 18997190 1465996607178 95382 1466015485234 1466015485586 9726 1465943427012 -1465996479481 1465996295107 1465943428787 -1465996480918 1465996481044 296298 -72304022 -81763 1465996579367 -90975 17 1465996494521 -1465996583058 1465996583403 -54350767 35152338 1466015485592 -18902153 -318122 -1465996285380 -289785 1465996505032 -1465996508251 -1465996479896 -18972640 -1465996512973 1465996481228 1465996612113 1465943456452 19 1465996583441 -1465996579120 1465996579352 4071 -1465996488392 -292189 -1465996286778 382 1465996497226 -1465996497609 1465996612104 112638 -23721 -1466015485608 1465961143932 -1465961143940 1465996286792 18990974 -18 1465996611756 -18991060 18991061 -1466015485576 366 
Potential of Offsets elements: 508.434 175.434 130.434 182.434 247.434 100.434 1581.1 1363.27 114.434 34.4338 44.4338 28.4338 40.4338 220.434 199.434 174.434 148.434 46.4338 44.4338 131.434 148.434 140.434 264.434 73.4338 28.4338 28.4338 28.4338 28.4338 28.4338 28.4338 49.4338 126.434 340.434 311.434 80.4338 41.4338 60.4338 822.434 118.434 33.4338 39.4338 112.434 304.434 239.434 92.4338 72.4338 48.4338 88.4338 28.4338 28.4338 28.4338 28.4338 28.4338 250.434 28.4338 28.4338 28.4338 67.4338 236.434 28.4338 28.4338 32.4338 28.4338 76.4338 40.4338 38.4338 72.4338 57.4338 42.4338 31.4338 36.4338 38.4338 34.4338 648.434 46.4338 58.4338 77.4338 38.4338 29.4338 31.4338 49.4338 68.4338 58.4338 38.4338 42.4338 36.4338 33.4338 38.4338 32.4338 32.4338 53.4338 58.4338 34.4338 35.4338 38.4338 46.4338 34.4338 54.4338 171.434 34.4338 30.4338 58.4338 45.4338 679.434 30.4338 28.4338 28.4338 328.434 28.4338 258.434 458.434 768.434 780.434 77.4338 80.4338 289.434 48.4338 35.4338 334.434 34.4338 28.4338 28.4338 29.4338 28.4338 46.4338 32.4338 78.4338 28.4338 28.4338 28.4338 28.4338 28.4338 36.4338 28.4338 28.4338 30.4338 30.4338 30.4338 36.4338 63.4338 34.4338 89.4338 49.4338 85.4338 43.4338 61.4338 28.4338 28.4338 334.434 58.4338 66.4338 148.434 28.4338 430.434 28.4338 28.4338 30.4338 44.4338 28.4338 370.434 28.4338 28.4338 28.4338 28.4338 240.434 273.434 58.4338 64.4338 70.4338 104.434 58.4338 52.4338 36.4338 49.4338 110.434 107.434 28.4338 28.4338 120.434 172.434 133.434 52.4338 28.4338 28.4338 74.4338 62.4338 28.4338 28.4338 28.4338 102.434 74.4338 66.4338 60.4338 184.434 405.434 71.4338 248.434 28.4338 47.4338 37.4338 28.4338 28.4338 28.4338 28.4338 76.4338 124.434 184.434 119.434 49.4338 78.4338 138.434 106.434 389.434 124.434 188.434 100.434 82.4338 313.434 232.434 316.434 334.434 108.434 40.4338 46.4338 28.4338 49.4338 84.4338 60.4338 80.4338 284.434 244.434 76.4338 73.4338 184.434 328.434 124.434 118.434 798.434 40.4338 66.4338 34.4338 136.434 28.4338 39.4338 46.4338 161.434 28.4338 28.4338 55.4338 28.4338 28.4338 28.4338 28.4338 168.434 132.434 132.434 56.4338 100.434 112.434 189.434 85.4338 262.434 88.4338 40.4338 49.4338 118.434 55.4338 28.4338 28.4338 254.434 141.434 119.434 161.434 50.4338 62.4338 28.4338 28.4338 79.4338 28.4338 93.4338 180.434 144.434 80.4338 154.434 112.434 248.434 30.4338 28.4338 98.4338 124.434 28.4338 28.4338 28.4338 28.4338 98.4338 64.4338 80.4338 88.4338 44.4338 32.4338 28.4338 28.4338 28.4338 76.4338 582.434 810.434 408.434 28.4338 28.4338 28.4338 28.4338 28.4338 28.4338 163.434 28.4338 28.4338 38.4338 38.4338 29.4338 28.4338 28.4338 32.4338 32.4338 38.4338 43.4338 34.4338 42.4338 46.4338 48.4338 34.4338 46.4338 37.4338 70.4338 40.4338 32.4338 48.4338 39.4338 28.4338 28.4338 30.4338 34.4338 32.4338 53.4338 82.4338 550.434 37.4338 32.4338 42.4338 67.4338 127.434 35.4338 29.4338 28.4338 28.4338 28.4338 28.4338 54.4338 90.4338 46.4338 46.4338 73.4338 28.4338 28.4338 41.4338 28.4338 28.4338 32.4338 30.4338 44.4338 28.4338 28.4338 50.4338 48.4338 56.4338 50.4338 28.4338 48.4338 28.4338 57.4338 111.434 95.4338 171.434 196.434 28.4338 28.4338 36.4338 33.4338 68.4338 127.434 84.4338 93.4338 48.4338 76.4338 40.4338 28.4338 64.4338 28.4338 56.4338 108.434 63.4338 76.4338 48.4338 46.4338 28.4338 28.4338 70.4338 32.4338 37.4338 28.4338 309.434 41.4338 28.4338 28.4338 28.4338 68.4338 79.4338 92.4338 108.434 130.434 40.4338 37.4338 28.4338 83.4338 108.434 197.434 63.4338 28.4338 28.4338 28.4338 280.434 34.4338 44.4338 28.4338 28.4338 28.4338 350.434 126.434 41.4338 28.4338 28.4338 262.434 28.4338 28.4338 28.4338 30.4338 28.4338 28.4338 76.4338 28.4338 28.4338 29.4338 32.4338 32.4338 33.4338 32.4338 68.4338 48.4338 49.4338 32.4338 34.4338 34.4338 119.434 114.434 32.4338 40.4338 42.4338 44.4338 36.4338 28.4338 46.4338 79.4338 32.4338 28.4338 28.4338 28.4338 28.4338 28.4338 28.4338 28.4338 28.4338 28.4338 28.4338 102.434 28.4338 28.4338 50.4338 28.4338 28.4338 29.4338 52.4338 40.4338 28.4338 28.4338 28.4338 252.434 72.4338 84.4338 33.4338 50.4338 34.4338 28.4338 28.4338 28.4338 32.4338 28.4338 58.4338 77.4338 188.434 172.434 28.4338 40.4338 181.434 108.434 28.4338 37.4338 88.4338 63.4338 104.434 28.4338 28.4338 36.4338 103.434 253.434 182.434 142.434 79.4338 136.434 28.4338 94.4338 122.434 28.4338 124.434 76.4338 28.4338 28.4338 34.4338 28.4338 412.434 28.4338 84.4338 118.434 112.434 98.4338 148.434 110.434 28.4338 28.4338 160.434 154.434 80.4338 236.434 172.434 80.4338 28.4338 28.4338 52.4338 182.434 128.434 245.434 30.4338 28.4338 58.4338 76.4338 28.4338 28.4338 47.4338 49.4338 28.4338 79.4338 497.434 62.4338 28.4338 53.4338 28.4338 159.434 40.4338 46.4338 37.4338 32.4338 30.4338 28.4338 29.4338 40.4338 36.4338 76.4338 70.4338 28.4338 31.4338 34.4338 34.4338 396.434 72.4338 42.4338 35.4338 66.4338 28.4338 32.4338 30.4338 31.4338 34.4338 48.4338 28.4338 40.4338 28.4338 28.4338 28.4338 28.4338 28.4338 28.4338 28.4338 28.4338 28.4338 28.4338 28.4338 28.4338 28.4338 58.4338 289.434 107.434 64.4338 31.4338 30.4338 247.434 105.434 136.434 148.434 88.4338 88.4338 96.4338 152.434 91.4338 28.4338 28.4338 49.4338 73.4338 96.4338 100.434 109.434 137.434 128.434 45.4338 28.4338 28.4338 85.4338 106.434 52.4338 75.4338 34.4338 28.4338 67.4338 28.4338 116.434 224.434 79.4338 88.4338 70.4338 68.4338 119.434 168.434 64.4338 28.4338 28.4338 51.4338 60.4338 294.434 88.4338 34.4338 28.4338 41.4338 40.4338 222.434 44.4338 28.4338 28.4338 116.434 28.4338 28.4338 46.4338 28.4338 28.4338 30.4338 36.4338 36.4338 69.4338 267.434 33.4338 32.4338 29.4338 58.4338 32.4338 34.4338 30.4338 86.4338 28.4338 67.4338 28.4338 48.4338 48.4338 28.4338 28.4338 28.4338 78.4338 103.434 47.4338 28.4338 28.4338 28.4338 28.4338 28.4338 28.4338 76.4338 28.4338 28.4338 72.4338 55.4338 28.4338 28.4338 37.4338 28.4338 28.4338 28.4338 28.4338 32.4338 49.4338 114.434 42.4338 50.4338 196.434 140.434 28.4338 103.434 198.434 210.434 310.434 148.434 28.4338 208.434 80.4338 82.4338 228.434 56.4338 40.4338 31.4338 28.4338 28.4338 118.434 52.4338 78.4338 263.434 28.4338 210.434 230.434 223.434 58.4338 28.4338 104.434 28.4338 28.4338 40.4338 28.4338 64.4338 145.434 219.434 52.4338 51.4338 28.4338 28.4338 41.4338 40.4338 48.4338 36.4338 40.4338 35.4338 70.4338 28.4338 38.4338 44.4338 38.4338 35.4338 41.4338 28.4338 29.4338 28.4338 34.4338 44.4338 109.434 28.4338 28.4338 38.4338 30.4338 28.4338 28.4338 29.4338 37.4338 41.4338 44.4338 28.4338 28.4338 28.4338 28.4338 28.4338 46.4338 48.4338 28.4338 28.4338 45.4338 31.4338 28.4338 32.4338 32.4338 52.4338 28.4338 68.4338 38.4338 58.4338 118.434 172.434 123.434 28.4338 40.4338 59.4338 148.434 42.4338 46.4338 64.4338 81.4338 28.4338 28.4338 58.4338 28.4338 163.434 28.4338 133.434 28.4338 196.434 49.4338 43.4338 260.434 28.4338 28.4338 28.4338 28.4338 28.4338 28.4338 28.4338 28.4338 28.4338 52.4338 68.4338 48.4338 54.4338 52.4338 34.4338 36.4338 28.4338 30.4338 42.4338 28.4338 328.434 34.4338 52.4338 84.4338 34.4338 28.4338 28.4338 28.4338 28.4338 28.4338 28.4338 28.4338 28.4338 28.4338 28.4338 28.4338 28.4338 28.4338 28.4338 28.4338 28.4338 28.4338 48.4338 79.4338 55.4338 42.4338 48.4338 70.4338 92.4338 88.4338 178.434 220.434 28.4338 40.4338 112.434 28.4338 52.4338 49.4338 30.4338 28.4338 61.4338 76.4338 37.4338 70.4338 123.434 139.434 40.4338 36.4338 40.4338 34.4338 31.4338 30.4338 28.4338 40.4338 755.434 97.4338 28.4338 28.4338 32.4338 50.4338 60.4338 36.4338 45.4338 44.4338 28.4338 28.4338 28.4338 28.4338 28.4338 28.4338 28.4338 402.434 28.4338 50.4338 28.4338 28.4338 93.4338 88.4338 28.4338 82.4338 28.4338 142.434 340.434 147.434 64.4338 28.4338 56.4338 28.4338 191.434 94.4338 82.4338 32.4338 28.4338 28.4338 31.4338 31.4338 31.4338 502.434 34.4338 34.4338 38.4338 34.4338 62.4338 59.4338 34.4338 32.4338 28.4338 84.4338 52.4338 28.4338 28.4338 28.4338 28.4338 37.4338 42.4338 32.4338 112.434 28.4338 28.4338 28.4338 95.4338 92.4338 44.4338 32.4338 28.4338 28.4338 46.4338 48.4338 30.4338 52.4338 38.4338 41.4338 30.4338 31.4338 32.4338 32.4338 46.4338 28.4338 34.4338 80.4338 60.4338 54.4338 32.4338 28.4338 28.4338 28.4338 28.4338 28.4338 28.4338 28.4338 28.4338 28.4338 52.4338 103.434 41.4338 55.4338 60.4338 49.4338 76.4338 37.4338 44.4338 78.4338 28.4338 40.4338 28.4338 28.4338 37.4338 93.4338 50.4338 28.4338 136.434 30.4338 74.4338 37.4338 85.4338 31.4338 34.4338 32.4338 28.4338 28.4338 70.4338 60.4338 28.4338 28.4338 28.4338 138.434 28.4338 28.4338 28.4338 28.4338 28.4338 28.4338 28.4338 463.434 28.4338 28.4338 28.4338 28.4338 28.4338 28.4338 28.4338 28.4338 28.4338 28.4338 28.4338 28.4338 28.4338 28.4338 28.4338 28.4338 28.4338 28.4338 60.4338 28.4338 28.4338 28.4338 28.4338 28.4338 
rewards of Offsets elements: 480 147 102 154 219 72 1581 1362 86 6 16 0 12 192 171 146 120 18 16 103 120 112 236 45 0 0 0 0 0 0 21 98 312 283 52 13 32 794 90 5 11 84 276 211 64 44 20 60 0 0 0 0 0 222 0 0 0 39 208 0 0 4 0 48 12 10 44 29 14 3 8 10 6 620 18 30 49 10 1 3 21 40 30 10 14 8 5 10 4 4 25 30 6 7 10 18 6 26 143 6 2 30 17 651 2 0 0 300 0 230 430 740 752 49 52 261 20 7 306 6 0 0 1 0 18 4 50 0 0 0 0 0 8 0 0 2 2 2 8 35 6 61 21 57 15 33 0 0 306 30 38 120 0 402 0 0 2 16 0 342 0 0 0 0 212 245 30 36 42 76 30 24 8 21 82 79 0 0 92 144 105 24 0 0 46 34 0 0 0 74 46 38 32 156 377 43 220 0 19 9 0 0 0 0 48 96 156 91 21 50 110 78 361 96 160 72 54 285 204 288 306 80 12 18 0 21 56 32 52 256 216 48 45 156 300 96 90 770 12 38 6 108 0 11 18 133 0 0 27 0 0 0 0 140 104 104 28 72 84 161 57 234 60 12 21 90 27 0 0 226 113 91 133 22 34 0 0 51 0 65 152 116 52 126 84 220 2 0 70 96 0 0 0 0 70 36 52 60 16 4 0 0 0 48 554 782 380 0 0 0 0 0 0 135 0 0 10 10 1 0 0 4 4 10 15 6 14 18 20 6 18 9 42 12 4 20 11 0 0 2 6 4 25 54 522 9 4 14 39 99 7 1 0 0 0 0 26 62 18 18 45 0 0 13 0 0 4 2 16 0 0 22 20 28 22 0 20 0 29 83 67 143 168 0 0 8 5 40 99 56 65 20 48 12 0 36 0 28 80 35 48 20 18 0 0 42 4 9 0 281 13 0 0 0 40 51 64 80 102 12 9 0 55 80 169 35 0 0 0 252 6 16 0 0 0 322 98 13 0 0 234 0 0 0 2 0 0 48 0 0 1 4 4 5 4 40 20 21 4 6 6 91 86 4 12 14 16 8 0 18 51 4 0 0 0 0 0 0 0 0 0 0 74 0 0 22 0 0 1 24 12 0 0 0 224 44 56 5 22 6 0 0 0 4 0 30 49 160 144 0 12 153 80 0 9 60 35 76 0 0 8 75 225 154 114 51 108 0 66 94 0 96 48 0 0 6 0 384 0 56 90 84 70 120 82 0 0 132 126 52 208 144 52 0 0 24 154 100 217 2 0 30 48 0 0 19 21 0 51 469 34 0 25 0 131 12 18 9 4 2 0 1 12 8 48 42 0 3 6 6 368 44 14 7 38 0 4 2 3 6 20 0 12 0 0 0 0 0 0 0 0 0 0 0 0 0 30 261 79 36 3 2 219 77 108 120 60 60 68 124 63 0 0 21 45 68 72 81 109 100 17 0 0 57 78 24 47 6 0 39 0 88 196 51 60 42 40 91 140 36 0 0 23 32 266 60 6 0 13 12 194 16 0 0 88 0 0 18 0 0 2 8 8 41 239 5 4 1 30 4 6 2 58 0 39 0 20 20 0 0 0 50 75 19 0 0 0 0 0 0 48 0 0 44 27 0 0 9 0 0 0 0 4 21 86 14 22 168 112 0 75 170 182 282 120 0 180 52 54 200 28 12 3 0 0 90 24 50 235 0 182 202 195 30 0 76 0 0 12 0 36 117 191 24 23 0 0 13 12 20 8 12 7 42 0 10 16 10 7 13 0 1 0 6 16 81 0 0 10 2 0 0 1 9 13 16 0 0 0 0 0 18 20 0 0 17 3 0 4 4 24 0 40 10 30 90 144 95 0 12 31 120 14 18 36 53 0 0 30 0 135 0 105 0 168 21 15 232 0 0 0 0 0 0 0 0 0 24 40 20 26 24 6 8 0 2 14 0 300 6 24 56 6 0 0 0 0 0 0 0 0 0 0 0 0 0 0 0 0 0 20 51 27 14 20 42 64 60 150 192 0 12 84 0 24 21 2 0 33 48 9 42 95 111 12 8 12 6 3 2 0 12 727 69 0 0 4 22 32 8 17 16 0 0 0 0 0 0 0 374 0 22 0 0 65 60 0 54 0 114 312 119 36 0 28 0 163 66 54 4 0 0 3 3 3 474 6 6 10 6 34 31 6 4 0 56 24 0 0 0 0 9 14 4 84 0 0 0 67 64 16 4 0 0 18 20 2 24 10 13 2 3 4 4 18 0 6 52 32 26 4 0 0 0 0 0 0 0 0 0 24 75 13 27 32 21 48 9 16 50 0 12 0 0 9 65 22 0 108 2 46 9 57 3 6 4 0 0 42 32 0 0 0 110 0 0 0 0 0 0 0 435 0 0 0 0 0 0 0 0 0 0 0 0 0 0 0 0 0 0 32 0 0 0 0 0 Printing Sanity3
offset_index value1076
offset list size1076
reward size1076
potential size1076
-----------------------------------------------------------------------------------------------------------------------------------------------------------------------------------------------------

DRAM Statistics
 CHANNEL 0
 RQ ROW_BUFFER_HIT:      88989  ROW_BUFFER_MISS:     340367
 DBUS_CONGESTED:        416
 WQ ROW_BUFFER_HIT:      15015  ROW_BUFFER_MISS:      76083  FULL:          0

 AVG_CONGESTED_CYCLE: 5
 All warmup complete: 2
Channel 0 Bank busy for read cycles: 0
Channel 0 Bank busy for write cycles: 0
Channel 0
Rank 0
0banks busy for read cycles: 237715645
0banks busy for write cycles: 44404
1banks busy for read cycles: 12180172
1banks busy for write cycles: 6947181
2banks busy for read cycles: 14235141
2banks busy for write cycles: 2106335
3banks busy for read cycles: 1166621
3banks busy for write cycles: 518519
4banks busy for read cycles: 563515
4banks busy for write cycles: 203699
5banks busy for read cycles: 400885
5banks busy for write cycles: 137802
6banks busy for read cycles: 350803
6banks busy for write cycles: 126181
7banks busy for read cycles: 327920
7banks busy for write cycles: 145378
8banks busy for read cycles: 338300
8banks busy for write cycles: 249807

CPU 0 Branch Prediction Accuracy: 99.7863% MPKI: 0.390065 Average ROB Occupancy at Mispredict: 19.96
Branch types
NOT_BRANCH: 163487732 81.7439%
BRANCH_DIRECT_JUMP: 2284365 1.14218%
BRANCH_INDIRECT: 12536315 6.26816%
BRANCH_CONDITIONAL: 14135281 7.06764%
BRANCH_DIRECT_CALL: 3327463 1.66373%
BRANCH_INDIRECT_CALL: 450518 0.225259%
BRANCH_RETURN: 3777991 1.889%
BRANCH_OTHER: 0 0%

DRAM PAGES: 1048576
Allocated PAGES: 6201
