
*** ChampSim Multicore Out-of-Order Simulator ***

Warmup Instructions: 50000000
Simulation Instructions: 200000000
Number of CPUs: 1
LLC sets: 2048
LLC ways: 16
Off-chip DRAM Size: 4096 MB Channels: 1 Width: 64-bit Data Rate: 6400 MT/s
CPU 0 runs traces/spec2k17/srv_0.champsimtrace.xz
.xz
BTB has LRU replacement policy
ITLB has LRU replacement policy
DTLB has LRU replacement policy
STLB has LRU replacement policy
L1I has LRU replacement policy
L1D has LRU replacement policy
Initialize SRRIP state for L2C
Initialize DRRIP state for LLC
Offsets elements: 
Potential of Offsets elements: 
rewards of Offsets elements: 
Printing Sanity1
offset list size2147
Offsets elements: 
Potential of Offsets elements: 
rewards of Offsets elements: 0 0 0 0 0 0 0 0 1773 646 0 1707 0 0 0 2002 0 18 0 0 0 48 0 0 0 0 0 0 0 0 0 0 0 0 0 1023 0 0 0 0 0 0 0 0 0 0 0 0 1 0 0 84 275 313 153 20 21 189 121 493 33 88 240 135 21 436 160 28 919 267 149 0 0 190 16 30 57 36 222 84 28 0 0 0 0 364 0 0 0 0 0 0 0 0 0 0 0 0 0 0 0 0 0 0 0 0 0 0 0 0 0 0 0 0 0 0 0 12 0 0 0 0 0 0 0 0 0 0 0 0 834 0 0 0 0 0 0 0 0 0 0 0 0 0 0 0 0 0 0 1 2 0 0 0 0 0 0 9 45 63 66 60 99 64 21 0 0 0 70 65 108 18 4 66 121 0 396 4 9 30 96 144 2 0 0 0 0 0 0 0 0 0 0 0 0 444 0 0 0 0 0 2 0 0 0 0 0 0 55 0 0 0 0 0 0 0 0 0 0 0 0 0 0 56 0 54 0 0 0 0 0 0 0 0 0 0 0 0 0 428 0 0 0 0 0 0 0 0 0 1 63 0 0 57 0 0 0 0 0 0 0 23 26 0 0 0 0 0 0 2 0 0 292 0 0 0 55 0 0 0 0 0 15 0 0 0 0 0 0 0 0 0 0 2 3 0 117 0 0 24 0 3 22 0 0 0 0 0 0 0 0 0 0 0 0 0 0 0 0 0 0 0 0 0 0 0 0 0 0 0 0 0 0 0 0 0 0 0 9 96 3 0 0 0 0 0 0 0 0 0 1071 961 0 0 0 0 0 0 0 0 0 0 0 0 0 0 0 0 28 0 0 0 0 0 0 0 0 0 0 0 0 249 0 0 0 0 0 0 0 12 0 0 0 0 0 0 0 0 0 0 0 0 0 0 0 0 0 0 0 0 4 0 26 0 0 0 0 0 0 0 0 0 0 0 0 0 0 0 0 0 0 0 0 0 0 0 0 0 0 0 0 91 201 0 0 0 0 0 0 0 0 0 0 0 0 0 0 0 0 0 0 0 0 3 0 0 0 0 0 0 0 0 0 0 0 0 52 0 0 0 0 52 0 11 0 0 0 0 0 0 0 0 0 0 0 0 0 0 0 0 0 0 0 0 0 0 0 0 0 0 0 0 0 0 0 0 0 0 0 0 0 0 0 0 0 55 0 0 0 0 0 0 0 0 0 0 0 0 0 0 0 0 0 0 0 0 0 0 0 0 0 0 0 0 0 0 0 0 0 0 0 54 0 30 0 4 0 0 0 0 0 0 0 0 0 0 0 0 0 0 44 0 0 0 0 0 0 0 0 0 0 0 0 0 0 0 0 0 0 0 0 0 0 0 0 1 0 0 0 0 0 0 0 2 0 0 0 0 0 0 0 0 0 0 0 0 0 0 2 50 0 0 0 0 0 0 0 0 0 0 0 0 0 0 0 0 0 0 0 0 0 0 0 0 0 0 0 0 0 0 0 0 0 0 0 0 251 0 0 16 2 0 12 0 197 0 0 85 0 0 49 70 0 0 0 0 27 0 0 0 4 0 0 0 0 0 0 0 0 0 0 0 0 0 0 0 96 0 34 0 0 4 0 0 0 0 0 0 0 0 0 0 0 0 0 0 0 0 0 0 0 0 0 0 0 0 0 0 0 0 0 0 0 0 0 0 0 0 0 0 0 0 0 0 0 0 0 0 0 12 2 12 0 0 0 0 0 0 0 0 0 0 0 0 0 0 0 0 0 0 0 0 0 0 0 0 0 0 0 0 0 0 0 0 0 0 0 0 0 0 0 0 0 0 0 0 45 0 0 0 0 0 0 0 0 0 0 0 0 0 0 0 0 0 0 0 0 0 0 0 0 0 0 0 0 0 0 0 0 0 0 0 0 0 0 0 0 0 434 0 0 0 0 0 0 0 0 0 0 0 0 0 0 0 0 0 0 0 0 0 0 0 0 0 0 0 0 0 0 0 0 0 0 0 0 0 0 0 0 0 0 0 0 0 0 0 64 0 0 0 0 0 0 0 0 0 0 0 0 0 0 980 0 0 0 0 0 0 0 0 0 494 0 0 0 1 324 0 0 0 32 0 0 0 0 0 0 0 0 0 0 0 0 0 114 0 0 0 0 0 0 0 0 0 0 0 0 0 0 0 0 0 0 0 0 0 0 131 0 0 0 0 0 0 0 0 163 0 0 0 0 0 0 24 0 0 0 0 0 50 0 0 16 9 0 0 0 0 0 0 0 0 0 0 0 0 0 0 0 0 0 0 0 0 0 0 0 0 0 0 0 0 0 0 0 0 0 0 0 0 0 2 0 42 0 0 0 0 0 0 0 0 0 0 0 0 0 0 0 0 0 0 0 0 15 0 0 0 0 0 0 0 0 0 0 0 0 0 0 0 0 0 0 0 0 0 0 0 0 0 0 0 0 0 0 0 0 0 0 0 0 0 0 85 0 0 0 0 0 0 0 0 0 0 0 0 0 0 0 0 0 0 0 0 0 0 0 0 0 0 0 0 0 0 0 0 0 0 0 0 0 0 0 0 0 0 0 0 0 0 0 0 0 0 0 0 0 0 0 0 0 0 0 0 0 0 0 0 0 0 0 0 0 0 0 0 0 0 0 0 0 0 0 0 0 0 0 0 0 0 0 0 0 23 0 0 0 0 0 0 0 0 2 0 0 0 0 0 0 0 0 0 0 0 0 0 0 0 0 0 0 0 0 0 0 0 0 0 0 0 0 0 0 0 0 0 0 0 0 0 0 0 0 0 0 0 0 0 0 0 0 2 4 0 0 0 0 0 0 0 0 0 0 0 0 0 0 0 0 0 0 0 0 0 0 0 0 0 0 0 0 0 0 0 0 0 0 0 0 0 0 0 0 0 46 0 0 0 0 0 0 0 0 0 0 0 0 0 0 0 0 0 0 0 0 0 0 0 0 0 0 0 0 0 0 0 0 0 0 0 0 0 0 6 0 8 0 0 0 0 0 0 0 0 0 0 0 0 0 0 0 0 0 0 0 0 0 0 0 0 0 0 0 0 0 0 0 0 0 0 0 0 0 0 0 0 0 0 0 0 0 0 0 0 38 456 0 0 0 0 0 0 0 0 0 3 0 0 0 0 0 0 0 0 0 0 3 0 0 38 0 0 0 0 0 0 0 0 0 0 0 0 0 0 0 0 0 0 0 0 0 0 0 0 0 0 0 0 0 0 0 0 0 0 0 0 0 0 0 0 0 0 0 5 0 0 0 0 0 0 0 0 0 0 0 0 0 0 0 0 0 0 0 0 0 0 0 0 0 0 0 0 0 0 0 0 0 0 0 0 0 0 0 0 0 0 0 0 0 0 6 20 0 0 0 0 0 0 0 0 10 0 2 0 0 0 0 0 0 144 0 0 0 0 0 0 0 0 0 0 0 0 0 0 0 0 0 0 0 0 0 0 0 0 0 0 0 0 0 0 0 0 0 0 0 0 0 0 0 0 0 0 0 0 0 4 0 0 0 0 0 0 0 36 0 0 0 0 0 0 0 2 4 0 0 0 0 0 0 0 0 0 0 0 0 0 0 0 0 0 0 0 0 0 0 0 0 0 0 0 0 0 0 0 0 0 0 0 0 0 0 0 0 0 0 0 0 0 0 0 0 0 0 0 0 0 0 0 0 0 0 664 0 0 0 12 0 0 0 0 0 0 0 0 0 0 0 16 0 0 0 0 0 0 0 0 0 0 0 0 0 0 2 0 0 0 0 0 0 0 0 0 0 0 0 0 0 0 0 0 0 0 0 0 0 0 0 72 0 0 0 0 0 0 0 0 0 0 0 0 0 0 0 0 0 0 0 0 0 0 0 0 0 9 0 0 0 0 0 0 0 0 0 0 0 0 0 0 0 0 0 0 0 0 0 0 0 0 0 0 0 0 0 0 0 0 0 0 0 0 0 0 0 0 0 0 0 0 0 0 0 0 0 0 0 0 0 0 0 0 0 0 0 0 0 0 0 0 0 0 0 0 0 0 0 0 0 0 0 0 0 0 0 0 0 0 0 0 0 0 0 0 0 0 0 0 0 0 0 0 0 0 0 0 0 0 0 0 0 0 0 0 0 0 0 0 0 0 0 0 0 0 0 0 0 0 0 0 0 0 0 0 0 0 0 0 0 0 0 0 0 0 0 0 0 0 0 0 0 0 0 0 0 0 0 0 0 0 0 0 0 0 0 0 0 0 0 0 0 0 0 0 0 0 0 0 0 0 0 0 0 0 0 0 0 0 0 0 0 0 0 0 0 0 0 0 0 0 0 0 0 0 0 0 0 0 0 0 0 0 0 0 0 0 0 0 0 0 0 0 0 0 0 0 0 0 0 0 0 0 0 0 0 0 12 0 6 0 0 0 163 0 0 71 0 0 0 0 0 0 0 0 0 0 0 0 0 0 0 0 0 0 0 0 0 0 0 0 0 0 40 21 18 33 6 0 0 0 0 0 0 0 0 0 0 0 0 0 0 0 0 0 0 0 0 0 0 0 0 0 0 0 0 0 0 0 0 0 0 0 0 0 0 0 0 0 0 0 0 0 0 0 0 0 0 0 0 0 5 0 0 0 0 0 0 0 0 0 0 0 0 0 0 0 0 0 0 32 0 0 0 0 0 0 0 0 0 0 0 0 0 0 0 0 0 0 0 0 0 0 0 0 0 0 0 0 0 0 0 0 0 0 0 0 0 0 0 0 0 0 0 0 0 0 0 0 0 0 0 0 0 0 0 0 0 0 0 0 0 0 0 0 0 0 0 0 0 0 0 0 0 0 0 0 0 0 0 0 0 0 0 0 0 0 0 0 0 
Printing Sanity2
Heartbeat CPU 0 instructions: 10000003 cycles: 2788627 heartbeat IPC: 3.586 cumulative IPC: 3.586 (Simulation time: 0 hr 0 min 21 sec) 
Heartbeat CPU 0 instructions: 20000000 cycles: 5597634 heartbeat IPC: 3.55998 cumulative IPC: 3.57294 (Simulation time: 0 hr 0 min 42 sec) 
Heartbeat CPU 0 instructions: 30000001 cycles: 8406245 heartbeat IPC: 3.56048 cumulative IPC: 3.56878 (Simulation time: 0 hr 1 min 3 sec) 
*** Reached end of trace for Core: 0 Repeating trace: traces/spec2k17/srv_0.champsimtrace.xz
Heartbeat CPU 0 instructions: 40000002 cycles: 11217822 heartbeat IPC: 3.55672 cumulative IPC: 3.56575 (Simulation time: 0 hr 1 min 23 sec) 
Heartbeat CPU 0 instructions: 50000000 cycles: 14025296 heartbeat IPC: 3.56192 cumulative IPC: 3.56499 (Simulation time: 0 hr 1 min 44 sec) 

Warmup complete CPU 0 instructions: 50000004 cycles: 14025297 (Simulation time: 0 hr 1 min 44 sec) 

Heartbeat CPU 0 instructions: 60000000 cycles: 38049434 heartbeat IPC: 0.416248 cumulative IPC: 0.416248 (Simulation time: 0 hr 2 min 19 sec) 
*** Reached end of trace for Core: 0 Repeating trace: traces/spec2k17/srv_0.champsimtrace.xz
Heartbeat CPU 0 instructions: 70000001 cycles: 62405121 heartbeat IPC: 0.410582 cumulative IPC: 0.413395 (Simulation time: 0 hr 2 min 52 sec) 
Heartbeat CPU 0 instructions: 80000001 cycles: 86382840 heartbeat IPC: 0.417054 cumulative IPC: 0.414608 (Simulation time: 0 hr 3 min 26 sec) 
Heartbeat CPU 0 instructions: 90000002 cycles: 110158044 heartbeat IPC: 0.420606 cumulative IPC: 0.416091 (Simulation time: 0 hr 4 min 0 sec) 
*** Reached end of trace for Core: 0 Repeating trace: traces/spec2k17/srv_0.champsimtrace.xz
Heartbeat CPU 0 instructions: 100000000 cycles: 134463295 heartbeat IPC: 0.411434 cumulative IPC: 0.415151 (Simulation time: 0 hr 4 min 34 sec) 
Heartbeat CPU 0 instructions: 110000000 cycles: 158543123 heartbeat IPC: 0.415285 cumulative IPC: 0.415174 (Simulation time: 0 hr 5 min 8 sec) 
Heartbeat CPU 0 instructions: 120000002 cycles: 182480721 heartbeat IPC: 0.417753 cumulative IPC: 0.41554 (Simulation time: 0 hr 5 min 42 sec) 
*** Reached end of trace for Core: 0 Repeating trace: traces/spec2k17/srv_0.champsimtrace.xz
Heartbeat CPU 0 instructions: 130000000 cycles: 206660075 heartbeat IPC: 0.413576 cumulative IPC: 0.415294 (Simulation time: 0 hr 6 min 16 sec) 
Heartbeat CPU 0 instructions: 140000003 cycles: 230611599 heartbeat IPC: 0.41751 cumulative IPC: 0.415539 (Simulation time: 0 hr 6 min 50 sec) 
Heartbeat CPU 0 instructions: 150000000 cycles: 254476450 heartbeat IPC: 0.419026 cumulative IPC: 0.415885 (Simulation time: 0 hr 7 min 24 sec) 
*** Reached end of trace for Core: 0 Repeating trace: traces/spec2k17/srv_0.champsimtrace.xz
Heartbeat CPU 0 instructions: 160000002 cycles: 278295268 heartbeat IPC: 0.419836 cumulative IPC: 0.416241 (Simulation time: 0 hr 7 min 57 sec) 
Heartbeat CPU 0 instructions: 170000001 cycles: 302421405 heartbeat IPC: 0.414488 cumulative IPC: 0.416094 (Simulation time: 0 hr 8 min 31 sec) 
Heartbeat CPU 0 instructions: 180000001 cycles: 326298437 heartbeat IPC: 0.418813 cumulative IPC: 0.416302 (Simulation time: 0 hr 9 min 5 sec) 
*** Reached end of trace for Core: 0 Repeating trace: traces/spec2k17/srv_0.champsimtrace.xz
Heartbeat CPU 0 instructions: 190000000 cycles: 350024680 heartbeat IPC: 0.421474 cumulative IPC: 0.416667 (Simulation time: 0 hr 9 min 39 sec) 
Heartbeat CPU 0 instructions: 200000001 cycles: 374376422 heartbeat IPC: 0.410648 cumulative IPC: 0.416261 (Simulation time: 0 hr 10 min 13 sec) 
Heartbeat CPU 0 instructions: 210000000 cycles: 398110907 heartbeat IPC: 0.421328 cumulative IPC: 0.416574 (Simulation time: 0 hr 10 min 47 sec) 
*** Reached end of trace for Core: 0 Repeating trace: traces/spec2k17/srv_0.champsimtrace.xz
Heartbeat CPU 0 instructions: 220000000 cycles: 421974828 heartbeat IPC: 0.419043 cumulative IPC: 0.416718 (Simulation time: 0 hr 11 min 20 sec) 
Heartbeat CPU 0 instructions: 230000003 cycles: 446338197 heartbeat IPC: 0.410452 cumulative IPC: 0.416365 (Simulation time: 0 hr 11 min 54 sec) 
Heartbeat CPU 0 instructions: 240000003 cycles: 469725774 heartbeat IPC: 0.427577 cumulative IPC: 0.416941 (Simulation time: 0 hr 12 min 27 sec) 
*** Reached end of trace for Core: 0 Repeating trace: traces/spec2k17/srv_0.champsimtrace.xz
Heartbeat CPU 0 instructions: 250000003 cycles: 493628659 heartbeat IPC: 0.41836 cumulative IPC: 0.417011 (Simulation time: 0 hr 13 min 1 sec) 
Finished CPU 0 instructions: 200000003 cycles: 479603363 cumulative IPC: 0.417011 (Simulation time: 0 hr 13 min 1 sec) 

ChampSim completed all CPUs

Region of Interest Statistics

CPU 0 cumulative IPC: 0.417011 instructions: 200000003 cycles: 479603363
ITLB TOTAL     ACCESS:   31488303  HIT:   30684463  MISS:     803840  HIT %:    97.4472  MISS %:    2.55282   MPKI: 4.0192
ITLB LOAD TRANSLATION ACCESS:   31488303  HIT:   30684463  MISS:     803840  HIT %:    97.4472  MISS %:    2.55282   MPKI: 4.0192
ITLB PREFETCH  REQUESTED:          0  ISSUED:          0  USEFUL:          0  USELESS:          0
ITLB USEFUL LOAD PREFETCHES:          0 PREFETCH ISSUED TO LOWER LEVEL:          0  ACCURACY: -nan
ITLB TIMELY PREFETCHES:          0 LATE PREFETCHES: 0 DROPPED PREFETCHES: 0
ITLB PREFETCHES SAME FILL-ORIGIN LEVEL: 0 DIFFERENT FILL-ORIGIN LEVEL: 0
ITLB AVERAGE MISS LATENCY: 16.0858 cycles
ITLB RQ	ACCESS:   38368703	FORWARD:          0	MERGED:    6686132	TO_CACHE:   31682571

DTLB TOTAL     ACCESS:   37443558  HIT:   34892906  MISS:    2550652  HIT %:     93.188  MISS %:    6.81199   MPKI: 12.7533
DTLB LOAD TRANSLATION ACCESS:   37443558  HIT:   34892906  MISS:    2550652  HIT %:     93.188  MISS %:    6.81199   MPKI: 12.7533
DTLB PREFETCH  REQUESTED:          0  ISSUED:          0  USEFUL:          0  USELESS:          0
DTLB USEFUL LOAD PREFETCHES:          0 PREFETCH ISSUED TO LOWER LEVEL:          0  ACCURACY: -nan
DTLB TIMELY PREFETCHES:          0 LATE PREFETCHES: 0 DROPPED PREFETCHES: 0
DTLB PREFETCHES SAME FILL-ORIGIN LEVEL: 0 DIFFERENT FILL-ORIGIN LEVEL: 0
DTLB AVERAGE MISS LATENCY: 14.2986 cycles
DTLB RQ	ACCESS:   47846087	FORWARD:          0	MERGED:   10249278	TO_CACHE:   37596809

STLB TOTAL     ACCESS:   24896645  HIT:   24440838  MISS:     455807  HIT %:    98.1692  MISS %:     1.8308   MPKI: 2.27903
STLB LOAD TRANSLATION ACCESS:    3354492  HIT:    2900665  MISS:     453827  HIT %:    86.4711  MISS %:    13.5289   MPKI: 2.26913
STLB TRANSLATION FROM L1D PREFETCHER ACCESS:   21542153  HIT:   21540173  MISS:       1980  HIT %:    99.9908  MISS %: 0.00919128   MPKI: 0.0099
STLB PREFETCH  REQUESTED:          0  ISSUED:          0  USEFUL:       1766  USELESS:        213
STLB USEFUL LOAD PREFETCHES:       1766 PREFETCH ISSUED TO LOWER LEVEL:          0  ACCURACY: inf
STLB TIMELY PREFETCHES:       1766 LATE PREFETCHES: 27 DROPPED PREFETCHES: 1529716
STLB PREFETCHES SAME FILL-ORIGIN LEVEL: 0 DIFFERENT FILL-ORIGIN LEVEL: 0
STLB AVERAGE MISS LATENCY: 42.0967 cycles
STLB RQ	ACCESS:   30268262	FORWARD:          0	MERGED:    3841383	TO_CACHE:   26426879

STLB Hit, L1D data hit: 0
STLB Hit, L2C data hit: 0
STLB Hit, LLC data hit: 0
STLB Hit, LLC data miss: 0
STLB STLB hints to L2: 0
L1D TOTAL     ACCESS:   72482547  HIT:   68379481  MISS:    4103066  HIT %:    94.3392  MISS %:    5.66076   MPKI: 20.5153
L1D LOAD      ACCESS:   27866276  HIT:   25667156  MISS:    2199120  HIT %:    92.1083  MISS %:    7.89169   MPKI: 10.9956
L1D RFO       ACCESS:   19501298  HIT:   19193988  MISS:     307310  HIT %:    98.4242  MISS %:    1.57584   MPKI: 1.53655
L1D PREFETCH  ACCESS:   25114973  HIT:   23518337  MISS:    1596636  HIT %:    93.6427  MISS %:    6.35731   MPKI: 7.98318
AGUS PREFETCH L1 MISS: 0
L1D PREFETCH  REQUESTED:   54921006  ISSUED:   54920828  USEFUL:     258802  USELESS:    1337823
L1D USEFUL LOAD PREFETCHES:     258802 PREFETCH ISSUED TO LOWER LEVEL:    1605965  ACCURACY: 16.115
L1D TIMELY PREFETCHES:     258802 LATE PREFETCHES: 8764 DROPPED PREFETCHES: 1530074
L1D PREFETCHES SAME FILL-ORIGIN LEVEL: 1605965 DIFFERENT FILL-ORIGIN LEVEL: 0
L1D AVERAGE MISS LATENCY: 577678 cycles
L1D RQ	ACCESS:   42102214	FORWARD:          0	MERGED:   13896150	TO_CACHE:   28007235
L1D WQ	ACCESS:   20137758	FORWARD:     243839	MERGED:     298906	TO_CACHE:   19838852
L1D PQ	ACCESS:   28007058	FORWARD:          0	MERGED:    1048278	TO_CACHE:   26913770

L1D UNIQUE REGIONS ACCESSED: 0
L1D REGIONS CONFLICTS: 0
L1D Cross Page Prefetch Requests: 2498879
L1D Same Page Prefetch Requests: 31332386
L1D ROI Sum of L1D PQ occupancy: 442496753
L1D PREFETCHES PUSHED FROM L2C: 0
L1I TOTAL     ACCESS:   36680799  HIT:   31516023  MISS:    5164776  HIT %:    85.9197  MISS %:    14.0803   MPKI: 25.8239
L1I LOAD      ACCESS:   36680799  HIT:   31516023  MISS:    5164776  HIT %:    85.9197  MISS %:    14.0803   MPKI: 25.8239
L1I PREFETCH  REQUESTED:          0  ISSUED:          0  USEFUL:          0  USELESS:          0
L1I USEFUL LOAD PREFETCHES:          0 PREFETCH ISSUED TO LOWER LEVEL:          0  ACCURACY: -nan
L1I TIMELY PREFETCHES:          0 LATE PREFETCHES: 0 DROPPED PREFETCHES: 0
L1I PREFETCHES SAME FILL-ORIGIN LEVEL: 0 DIFFERENT FILL-ORIGIN LEVEL: 0
L1I AVERAGE MISS LATENCY: 29.5858 cycles
L1I RQ	ACCESS:   57141991	FORWARD:          0	MERGED:   18773288	TO_CACHE:   38368703

BTB TOTAL     ACCESS:   22550836  HIT:   17495671  MISS:    5055165  HIT %:    77.5832  MISS %:    22.4168   MPKI: 25.2758
BTB BRANCH_DIRECT_JUMP	ACCESS:    1746702  HIT:    1443261  MISS:     303441
BTB BRANCH_INDIRECT	ACCESS:    9682796  HIT:    7307546  MISS:    2375250
BTB BRANCH_CONDITIONAL	ACCESS:    4538075  HIT:    4055500  MISS:     482575
BTB BRANCH_DIRECT_CALL	ACCESS:    2563120  HIT:    1968742  MISS:     594378
BTB BRANCH_INDIRECT_CALL	ACCESS:     725676  HIT:     668377  MISS:      57299
BTB BRANCH_RETURN	ACCESS:    3294467  HIT:    2052245  MISS:    1242222
BTB BRANCH_OTHER ACCESS:          0  HIT:          0  MISS:          0

L2C TOTAL     ACCESS:   13570612  HIT:    8656880  MISS:    4913732  HIT %:    63.7914  MISS %:    36.2086   MPKI: 24.5687
L2C LOAD      ACCESS:    7354882  HIT:    3668324  MISS:    3686558  HIT %:     49.876  MISS %:     50.124   MPKI: 18.4328
L2C DATA LOAD MPKI: 5.5975
L2C INSTRUCTION LOAD MPKI: 12.8353
L2C RFO       ACCESS:     306741  HIT:     150645  MISS:     156096  HIT %:    49.1115  MISS %:    50.8885   MPKI: 0.78048
L2C PREFETCH  ACCESS:    1605823  HIT:     820426  MISS:     785397  HIT %:    51.0907  MISS %:    48.9093   MPKI: 3.92698
AGUS PREFETCH L1 MISS: 0
L2C DATA PREFETCH MPKI: 3.92698
L2C INSTRUCTION PREFETCH MPKI: 0
L2C WRITEBACK ACCESS:    1075787  HIT:    1030694  MISS:      45093  HIT %:    95.8084  MISS %:    4.19163   MPKI: 0.225465
L2C LOAD TRANSLATION ACCESS:     576018  HIT:     340826  MISS:     235192  HIT %:    59.1693  MISS %:    40.8307   MPKI: 1.17596
L2C TRANSLATION FROM L1D PREFETCHER ACCESS:    2651361  HIT:    2645965  MISS:       5396  HIT %:    99.7965  MISS %:   0.203518   MPKI: 0.02698
L2C PREFETCH  REQUESTED:          0  ISSUED:          0  USEFUL:      34681  USELESS:     756174
L2C USEFUL LOAD PREFETCHES:      34681 PREFETCH ISSUED TO LOWER LEVEL:     785397  ACCURACY: 4.41573
L2C TIMELY PREFETCHES:      34681 LATE PREFETCHES: 0 DROPPED PREFETCHES: 0
L2C PREFETCHES SAME FILL-ORIGIN LEVEL: 0 DIFFERENT FILL-ORIGIN LEVEL: 0
L2C AVERAGE MISS LATENCY: 38.9386 cycles
L2C RQ	ACCESS:   10889257	FORWARD:          0	MERGED:          0	TO_CACHE:   10889003
L2C WQ	ACCESS:    1075787	FORWARD:        396	MERGED:          0	TO_CACHE:    1075787
L2C PQ	ACCESS:    1605965	FORWARD:          0	MERGED:          0	TO_CACHE:    1605823

L2C Instructions Evicting Data 1099925
L2C Translations Evicting Data 103673
L2C Data Evicting Data 882190
L2C Instructions Evicting Instructions 1341987
L2C Translations Evicting Instructions 124623
L2C Data Evicting Instructions 1077859
L2C Instructions Evicting Translations 125146
L2C Translations Evicting Translations 12292
L2C Data Evicting Translations 100944
L2C Dense regions hint from L2: 0
PSCL5 TOTAL     ACCESS:    1985524  HIT:    1985524  MISS:          0  HIT %:        100  MISS %:          0   MPKI: 0
PSCL5 LOAD TRANSLATION ACCESS:     453800  HIT:     453800  MISS:          0  HIT %:        100  MISS %:          0   MPKI: 0
PSCL5 TRANSLATION FROM L1D PREFETCHER ACCESS:    1531724  HIT:    1531724  MISS:          0  HIT %:        100  MISS %:          0   MPKI: 0
PSCL5 PREFETCH  REQUESTED:          0  ISSUED:          0  USEFUL:          0  USELESS:          0
PSCL5 USEFUL LOAD PREFETCHES:          0 PREFETCH ISSUED TO LOWER LEVEL:          0  ACCURACY: -nan
PSCL5 TIMELY PREFETCHES:          0 LATE PREFETCHES: 0 DROPPED PREFETCHES: 0
PSCL5 PREFETCHES SAME FILL-ORIGIN LEVEL: 0 DIFFERENT FILL-ORIGIN LEVEL: 0

PSCL4 TOTAL     ACCESS:    1844392  HIT:    1843451  MISS:        941  HIT %:     99.949  MISS %:  0.0510195   MPKI: 0.004705
PSCL4 LOAD TRANSLATION ACCESS:     435796  HIT:     434855  MISS:        941  HIT %:    99.7841  MISS %:   0.215927   MPKI: 0.004705
PSCL4 TRANSLATION FROM L1D PREFETCHER ACCESS:    1408596  HIT:    1408596  MISS:          0  HIT %:        100  MISS %:          0   MPKI: 0
PSCL4 PREFETCH  REQUESTED:          0  ISSUED:          0  USEFUL:          0  USELESS:          0
PSCL4 USEFUL LOAD PREFETCHES:          0 PREFETCH ISSUED TO LOWER LEVEL:          0  ACCURACY: -nan
PSCL4 TIMELY PREFETCHES:          0 LATE PREFETCHES: 0 DROPPED PREFETCHES: 0
PSCL4 PREFETCHES SAME FILL-ORIGIN LEVEL: 0 DIFFERENT FILL-ORIGIN LEVEL: 0

PSCL3 TOTAL     ACCESS:    1964659  HIT:    1961117  MISS:       3542  HIT %:    99.8197  MISS %:   0.180286   MPKI: 0.01771
PSCL3 LOAD TRANSLATION ACCESS:     450281  HIT:     446739  MISS:       3542  HIT %:    99.2134  MISS %:    0.78662   MPKI: 0.01771
PSCL3 TRANSLATION FROM L1D PREFETCHER ACCESS:    1514378  HIT:    1514378  MISS:          0  HIT %:        100  MISS %:          0   MPKI: 0
PSCL3 PREFETCH  REQUESTED:          0  ISSUED:          0  USEFUL:          0  USELESS:          0
PSCL3 USEFUL LOAD PREFETCHES:          0 PREFETCH ISSUED TO LOWER LEVEL:          0  ACCURACY: -nan
PSCL3 TIMELY PREFETCHES:          0 LATE PREFETCHES: 0 DROPPED PREFETCHES: 0
PSCL3 PREFETCHES SAME FILL-ORIGIN LEVEL: 0 DIFFERENT FILL-ORIGIN LEVEL: 0

PSCL2 TOTAL     ACCESS:     875933  HIT:     757817  MISS:     118116  HIT %:    86.5154  MISS %:    13.4846   MPKI: 0.59058
PSCL2 LOAD TRANSLATION ACCESS:     454181  HIT:     336065  MISS:     118116  HIT %:    73.9936  MISS %:    26.0064   MPKI: 0.59058
PSCL2 TRANSLATION FROM L1D PREFETCHER ACCESS:     421752  HIT:     421752  MISS:          0  HIT %:        100  MISS %:          0   MPKI: 0
PSCL2 PREFETCH  REQUESTED:          0  ISSUED:          0  USEFUL:          0  USELESS:          0
PSCL2 USEFUL LOAD PREFETCHES:          0 PREFETCH ISSUED TO LOWER LEVEL:          0  ACCURACY: -nan
PSCL2 TIMELY PREFETCHES:          0 LATE PREFETCHES: 0 DROPPED PREFETCHES: 0
PSCL2 PREFETCHES SAME FILL-ORIGIN LEVEL: 0 DIFFERENT FILL-ORIGIN LEVEL: 0

LLC TOTAL     ACCESS:    5396341  HIT:    5062112  MISS:     334229  HIT %:    93.8064  MISS %:    6.19362   MPKI: 1.67114
LLC LOAD      ACCESS:    3686558  HIT:    3466097  MISS:     220461  HIT %:    94.0199  MISS %:    5.98013   MPKI: 1.1023
LLC RFO       ACCESS:     156096  HIT:     121219  MISS:      34877  HIT %:    77.6567  MISS %:    22.3433   MPKI: 0.174385
LLC PREFETCH  ACCESS:     785397  HIT:     750311  MISS:      35086  HIT %:    95.5327  MISS %:    4.46729   MPKI: 0.17543
AGUS PREFETCH L1 MISS: 0
LLC WRITEBACK ACCESS:     527702  HIT:     489230  MISS:      38472  HIT %:    92.7095  MISS %:    7.29048   MPKI: 0.19236
LLC LOAD TRANSLATION ACCESS:     235192  HIT:     230007  MISS:       5185  HIT %:    97.7954  MISS %:    2.20458   MPKI: 0.025925
LLC TRANSLATION FROM L1D PREFETCHER ACCESS:       5396  HIT:       5248  MISS:        148  HIT %:    97.2572  MISS %:    2.74277   MPKI: 0.00074
LLC PREFETCH  REQUESTED:          0  ISSUED:          0  USEFUL:        728  USELESS:      36159
LLC USEFUL LOAD PREFETCHES:        728 PREFETCH ISSUED TO LOWER LEVEL:      35086  ACCURACY: 2.0749
LLC TIMELY PREFETCHES:        728 LATE PREFETCHES: 0 DROPPED PREFETCHES: 0
LLC PREFETCHES SAME FILL-ORIGIN LEVEL: 0 DIFFERENT FILL-ORIGIN LEVEL: 0
LLC AVERAGE MISS LATENCY: 135.454 cycles
LLC RQ	ACCESS:    4083242	FORWARD:          0	MERGED:          0	TO_CACHE:    4083242
LLC WQ	ACCESS:     527702	FORWARD:          0	MERGED:          0	TO_CACHE:     527702
LLC PQ	ACCESS:     785397	FORWARD:          0	MERGED:          0	TO_CACHE:     785397

LLC Dense regions hint to LLC: 0

RAW hits: 2703173
Loads Generated: 44805389
Loads sent to L1D: 42102214
Stores Generated: 20137757
Stores sent to L1D: 20137758
Major fault: 0 Minor fault: 4255
Allocated PAGES: 4255
ucb ended
-----------------------------------------------------------------------------------------------------------------------------------------------------------------------------------------------------
Offsets elements: -2200618112446 2200618112446 1142572 -1142326 567718 3684 -21392 563729 -1 3 -1113740 1 1113944 -1114192 255 -3 -288223780706293556 -73 -4398019018605 4398019018607 -722452 10 8911346 -8911349 722446 7090209 -4397636645895 -333656 -146715 61355 -61355 4397630036057 -4397630071920 4397630071921 -4397630071922 2 475458 -475458 4397630071920 -4397630081875 9952 4397638415595 -8343671 -4397629562542 4397629562542 -4397630085937 4063 4397638270554 145511 312 22337 -4976 -8351865 -4397630085938 489474 43013 4397629553449 8343673 -154992 -8351866 8188680 -4397630085940 4397629363488 -4397628722163 4397629444612 -4397630085939 583325 -51035 -2 6 4397629553644 -1524212 4397631610150 8343671 -4398027362207 4398019018537 549187 4397629536752 -722451 -4397629363487 14195 -10115 -4081 4397630085939 -4397629553650 -4 -532289 4397630085937 -8351869 -4397630085934 641325 -58000 -2107537 1538226 -9954 9954 475459 -475459 -9953 519334 4397629562540 -4397630081874 4397629359426 7812655 -516233 182577 -85360 4397636780593 -7466982 -4397629349470 35862 -35862 4397637984047 -4397637984047 4397633074298 5332144 -8334455 -74 288223780706293376 -1142572 567964 574608 -574608 205 -209 -1113737 -249 4398018296155 8911356 -8911346 -10 722452 -722445 -7090209 -4397629555686 4397629974702 -4397630071919 -509381 -4397629596462 4397629596460 4397630081875 4397630071922 -8343670 4397638274616 -4397638274617 4397638420128 -4397638416065 4397638416066 17361 4976 -4977 43077 4397637897058 4397631610151 532288 4397629553648 -4397629536751 -549187 -388932598 4398019018536 -4397630071743 4397630071743 8343670 -4397638429610 4397630085940 -528210 4397630081858 4062 8188679 4397628840092 -182577 4397636719238 8634578 -4397637984048 288223780706293302 -1113946 -722450 -4398018296155 4398018296165 7812662 -7812655 722445 8188903 -4397638078245 333656 97217 -45815 9953 509381 -509380 4397630071919 -4397629596460 4397629596462 4397638416065 4397637897122 17673 8334505 -8356842 288228178336365289 -2200618011134 -13940 2200618025074 11750421 -10607857 -1142564 11750191 -15030530 -8390683 -9 23421174 -23421170 -2200606352793 2200614744500 -2200614744500 2200606352780 8391720 15029507 -2200629772676 2200629773278 -15031042 15031044 -452 -2200629752428 2200629752426 2200629752227 -2200629752224 -13997 2200629766222 199 -11125202 11125203 -11125204 11125204 -5632 5632 -5631 4096 -4097 11130852 -16 -203 -11749641 11749641 -11125001 11125202 -11133139 7938 -2200618650458 2200618598445 -26 15 11177026 -11177037 11 -2200618598437 2200618650231 -624896 -2200618025335 2200629775521 386 -11177457 -15 11177506 -2200629775932 1642 2200629773817 -2200629773817 2200629773816 -2200629773816 471 -471 -11177024 -11 -2200618598355 -84664 2200618683033 -13 62757 506688 10608056 -11114747 506690 20 -333 -625733 119357 -62757 11177501 -11177501 62758 -62755 62759 -62732 11177441 36 -11177508 31 51765 10964 -2200618661195 2200629775721 -11114523 11114746 -11235926 81252 -81253 81269 11154621 -11154621 11154653 -11154655 11154623 -11154624 11154619 -11154623 11154180 -11114274 -2200618659716 2200618596959 506379 -506378 22849 11154617 -11154620 11154622 33 -11154651 11154620 11154183 436 -438 -2200629760805 2200629760804 -11177036 -11177505 569448 -4420885 -2200614831582 86062 2200629774462 -10608055 -506691 -569448 569440 -506688 -635860 -2200618023856 2200629774463 -10608056 -569447 7 -8 22851 -10608058 10608060 -11750608 11750134 -10607584 -10608057 -1142548 11750606 -470 -11177035 -2200618683018 2200629860526 -472 -11177446 11177012 201 -11130835 11130835 -11130836 11130836 -2303 2303 11126536 -2200629775458 2200618644825 11130834 -11130833 -46589 14 -572892 619264 -2200618644599 -11177669 -2200618598229 2200618598233 -2200618598242 2200618598227 11177294 420 2200629774288 -2200629775390 2200618598158 -2200618682811 2200618682825 62965 11114747 -62965 11177713 -62964 62966 62967 -62940 -31 11177649 -11131344 16596 81253 16 11154654 -34 -11154619 2200618596751 -569135 569136 -569344 569344 -39908 32 -11154654 440 -443 438 -437 474 -2200629761278 2200629760806 -15028472 3851228 -2200629860524 2200619252467 -2200619166405 10608058 -11114746 1142549 -11177713 -572893 -2200618109917 -473 435 -434 -11177221 11177422 11133140 -11133140 6400 -6400 11126756 -11126757 11126537 2200618642521 11133138 -11133137 -43661 -573516 616960 -2200618642295 2200618598862 -2200618598853 2200629775512 -2200629775521 2200629775907 -386 -11176655 11177090 -2200629775389 2200629775390 -11176608 -2200618683435 2200618683449 62341 11114744 -62341 11177085 -11177089 62342 -62339 62340 -62340 62343 -62316 11177025 -11177092 62313 -18902 11133648 -2200618540018 2200618621271 11154450 -11154434 -11114716 2200618597375 209 -208 22433 11154655 15028470 -11176620 569032 -2200619252467 10607588 470 -573517 11750609 -2200629860489 2200629860055 -11176596 11176595 -11126739 11126739 -11126740 11126757 -623103 11749843 2200629775659 -11126738 -49983 -2200618598955 2200618025335 623360 -49729 -2200618598957 -11176551 11176986 2200618598886 -2200618683539 2200618683553 62237 -62237 11176981 -11176981 62238 -62235 62239 -62212 11176921 -11176988 62209 -12503 12502 2200618597479 417 -416 520 -520 11177240 22329 2200618606623 -3874289 15028472 34 -11176986 568928 -568927 11176988 -11750137 11750572 -11176491 11176493 17 -218 -18 -2200629776112 23232 -13994 13994 653 -652 200 -199 -2200629772629 2200614743167 15029463 -11750143 -2200618010996 -14339 2200629775941 -415 -48 -11750145 1142548 -2200629775926 2200629775938 -427 -11749943 11750324 10608057 10608023 -2200629860491 2200629860491 -10608024 10608025 -11154622 11154624 -11750329 595709 39906 -506687 -1142304 635613 506691 -506690 -62758 22850 -11114713 -635616 572859 -572857 572856 -569656 569657 -312 -1141993 1142306 -10608053 -506692 572857 -519 -11114745 -62760 11177504 -11750362 1142302 11750573 -10608004 -2200619167823 2200629775860 12 10608046 -11177494 11177494 -1142561 1142561 11177033 -11177046 -572853 624649 -624649 -247 573100 37 51759 573146 -572899 572869 -2200618568081 2200618568065 35 51761 -51761 51995 -236 11125710 -517652 11125676 -11125440 11125475 -11125474 -237 -51796 51796 239 -2200618627313 2200618627313 5 -2200615029682 2200615029682 -2200615029681 2200615029677 -2200615029677 -11125203 -11125206 4 -51759 51751 250 -250 -288223780707065977 69 -69 8364711 -8364713 8364712 -8364643 -71 8364714 -33778 406 206 33167 -33386 4895 -4893 33384 288223780698701012 -2200618737332 2637 2200618734695 -51783 52027 -2200618650395 2200618650395 -2200615046100 2200615046100 -254 -288223780698734394 -268 -5792474 5792712 4758 -3524 -8052182 -280351 70 8490623 -159632 4996 -5797470 -2258236 8050710 -4914 -8331142 8331546 -607 -8330935 2538589 5797765 -5797771 5796854 -8335423 421828 7909214 82 4914 -4510 5419 -8336355 2538584 -4398021409570 4398021409570 -2538580 8336352 -8336352 -4397629419034 4397636710626 1199532 -4397637937332 27150 -29930 -2020147 2020147 -2041485 21337 -21337 132451958 4397507529642 -4397637940111 130410477 -130850050 130850058 -132430624 4397635199333 -4397635199334 132430621 -132430625 132430625 4397502768709 4760925 -8491126 -4397629419032 -2050100 4397634007715 -4397634007713 4397631469131 6887961 -6887961 -4397631469133 4397638357094 -4397636776528 4397629888566 -4397629419056 4397636310105 -4397636340035 4397637940112 -4397637940112 4397631490470 -4397631490470 132451954 -132430617 -132451962 132451962 -4397635220671 4397631469133 8491126 -8491124 -4397629448987 4397637785119 -4397637755190 4397637900701 -4397637930632 4397637930944 -8499318 4397629419034 -4397629446208 27174 -469475 469475 4397629419035 8491123 -8491122 -4397629419036 4397629419036 -4397629888572 -388982401 388982401 469536 -27174 -442300 442325 -513638 513638 -442418 -71219 513637 -513637 71224 -71223 513636 -513636 71231 -71230 513635 -442400 -71235 513634 -442395 -71253 4397629959833 -4398018870973 389451937 -469460 442286 -389424664 388982365 -56274 -388926121 -5 4398027207039 -4397638062776 4397638225961 -17672 17672 -17674 22650 -22337 -8481956 2538581 -4397634007712 2050097 29930 4397636666189 -4397636696119 130410469 -132451954 21338 132430620 -132430623 4397639960257 -4760925 -3730200 8491125 -4397631490469 4397631490469 -11537 32875 -132463495 132463499 -132463499 32876 132430623 4397507529634 -8491125 -4397631502008 132463491 -132440429 9813 -132440433 132440437 -132440437 9814 -5952543 4397638357091 -6887962 6887962 -19 -4397638366888 4397634017534 -4397631928033 4397629389446 8491124 -4398027361995 4398021409461 5792464 -5792353 5797772 -8336356 8331207 -5792616 5796848 8 -5796856 -4397631928036 4397637724884 -5796841 5792588 -5792587 -2355535 8181647 -33414 30 1204 5182 152978 -8490623 2538521 5521792 275756 -8499324 8331059 -5797768 270965 -8331280 8364643 -8364711 -5826122 275676 -4729 -8331328 8364710 -8364710 -8364642 8364642 288223780698701011 2200618737332 -288223780707065721 288223780707065971 -2200618734945 2200618734942 -2200618734965 2200618734957 -239 -51762 51762 52020 2200618650151 -2200614977677 -288221580083671574 288223780698701250 238 -238 -51795 -2200614977643 2200615029438 -2200615029438 2200615029680 -6 -11125444 -2200618650231 2200618650467 11125474 -2200629775941 2200618650473 -242 -51773 -7 11177225 511744 -511744 -10609872 -515331 -624640 -17 18 -11125220 2200618627219 11125661 -11125660 11125207 -11125208 -11125201 -243 26 51769 381 -11177506 2200618648813 -11125475 -2200618650386 2200618598366 -2200618683019 2200618683021 62760 -11177504 52006 -52027 62761 -119354 11234101 62756 -62756 62755 11177472 -11125676 2200618598437 11114526 29176 10730 -15028908 3903467 -52032 11177471 -11177472 11177473 -29176 -10731 -51506 51508 -51509 -62238 -104 104 -728 729 -62234 62236 -62240 11176984 -11125477 -52030 -11177452 51775 -2200618650150 532 51783 11176513 -11176526 49740 1772 -51276 -557 566 51230 -51230 -2200618568111 2200618568601 -49705 49939 -50260 -11126975 11127010 -11127009 -2200618625538 2200618625777 -49740 49984 -2200615022481 2200615022482 -2200615022482 2200615022480 11126738 -11126741 -49703 49695 -288223780698699733 -8348324 8348325 -8348325 8348256 -8348326 8348324 -8348327 8314552 -8314481 8314887 33163 -33383 33381 288223780698699479 -2200618735796 2200618733159 -49727 49971 -2200618648859 2200618648859 2200618648858 -288223780698733380 -5792506 5797502 288221580083687270 -288221580083692028 -8316079 8474239 -8210346 2258208 -2258208 8050714 -8055710 607 -8315162 8319973 -8319970 2522173 5796880 -5796886 -2522153 8314658 -5854305 5854912 -8315159 8319972 -5797804 -4398021409538 4398021409548 5797804 -8319968 -4397629435411 -2059920 2032739 4397636710650 -4397636740580 130410470 -4397639970071 2029959 -4397507529638 -130410473 -132451961 4397639981595 -4397639981596 4397635220671 -4397635220670 132440433 4397635232208 -4397635232208 23062 4397639970071 -23062 132440429 4397635209146 -8474742 -4397629435409 4397634017496 -4397634017493 4397631495327 -4397631495329 4397638389950 -4397636306999 4397629435440 8474742 -1603228 -4397636336884 -2029959 -130410470 130410474 4397639981596 -4397639981595 132451961 2071414 4397633149257 -3713815 -4397631506856 2041484 -8482932 4397629435411 -4397629462592 27181 -469482 469482 4397629435412 8474739 -8474738 -4397629435413 -469543 469543 -389451944 4398018887357 -4397629904956 -27181 71217 442413 -442405 -14 71253 4397629904964 -4398018887357 388982477 469467 -389451845 389424664 -498573 56274 161863 -218137 -8482933 2522165 -4397631957576 4397636666158 -4397638726075 2032736 4397637937332 -4397637910182 130380540 -130410474 -4397507529634 -130410478 130410478 -130410477 4397633179186 -132440428 -11526 23063 132440432 -132440436 132440436 -4397639960257 -32876 132430615 -4397635199333 -9813 4397634017501 -4398021409420 4398027361995 -4397629405842 -2089485 4397638366884 1603183 -5952566 -4397634040567 4397638389905 1443158 -5792385 -337 5149 -5797797 -5796881 5792620 -4397637720643 4397631928024 5799145 -6416 -8148237 8148268 -32177 149117 9043 -9042 -8465197 8465509 -5960765 5960764 -438943 275759 -8319755 8348322 -33647 33647 -28651 -5792988 5797800 -5011 -8314896 8348258 -304330 275679 33379 -8348323 8348323 -8348256 8348255 2200618736046 -288223780707048051 288223780707047801 -2200618733159 -23 2200618733182 -49706 49706 -288221580080050864 288223780698699717 49947 -49981 -2200614972499 -11126980 -2200618648695 2200618648937 11126981 -11176698 49965 -10613459 3587 -1139971 11749860 11126745 -2200618648922 2200629775677 -2200629752445 2200629752429 -2200629766423 2200618016580 11750294 2200629752880 -11127190 -11126743 11126742 -2200618648680 2200618598940 -2200618598982 427 -46 -11127011 -2200618648849 1572 2200618647278 -49964 -2200618683544 2200618745781 -103 57120 62234 -62239 11176952 -11176950 -12500 12503 -2200618661197 2200629775943 11235703 -11154450 27640 -27642 -11126979 12266 22330 -33 -2200629761242 2200618634265 -3901930 3851956 -11176952 11176953 -12265 12265 -62966 624 -624 625 62345 11114745 -62344 11177088 -11127013 -49974 -11176932 49719 -2200618648614 -92 49727 11176617 -11176630 43444 6636 -2200618618325 2200618568481 67 -58 -134 49844 -43409 43643 -43340 43340 11133646 -11133410 -2200618619138 2200618619377 -43444 43688 -2200615038407 2200615038408 11133139 -11133141 -43407 43399 249 -288223780707025273 -70 8331860 -8331861 8331859 -8331791 8298168 33694 -33082 -206 33289 -33302 33300 288223780698693160 -2200618729396 2200618726759 -43431 43431 244 -2200618642459 2200618642459 -2200615036127 2200615036127 -288223780698726980 -4758 -8029162 -270533 8457855 -8298293 8298293 -8055902 -247386 8298171 -8298170 270601 8028176 4812 -8303586 270605 8032064 -8032070 -270585 8298275 5117 -8303285 8298776 -5854888 5859700 -4398027207342 4398019174354 -270606 8303584 -4397637755384 -2082977 4397638793601 130407690 -130380540 4397639993133 -132451958 11537 -132463491 132463495 4397499071276 -4397499071276 -4397637910157 130380523 4397631805374 3426834 -3697432 -4397631534773 4397638389902 -4397638389905 -6855129 -4397631523239 4397631523238 6855152 -4397636306976 4397637940111 -4397631523238 -4397633149257 4397629481756 8458356 -8466550 -4397629451802 -389451939 4398018903741 8458354 27175 -469477 -61 442362 71219 442418 -442413 -71224 442405 71235 442400 -513635 71239 442395 -513648 71337 4397629921264 -4398018903741 389451939 -27176 -442299 -388982365 388926091 218137 -389144258 4398027352545 -4398027352550 145512 -8466548 8471525 -8200928 -4397629722397 -2082974 2055798 4397636693339 -4397636666189 11527 -11527 11526 132440428 -132463490 132463494 132463498 -8458358 3697432 -4397635232207 132463490 -132440427 9812 132430619 4397507529638 -4397639960258 4397631772498 -4397499341875 -132463496 132463496 4397505926406 -3157697 -3697433 6855130 1603228 -4397638357029 4397638357093 -6584589 -270603 -4397629422220 4397637880576 4398019174245 8027680 -8032686 -270 -8027562 8032981 -917 -8032072 -4397629692826 4397637724890 -8032057 8027804 -8027803 8027943 -30 6416 143935 -145511 -155111 -11678 32096 117334 -13607 -8457855 270537 7756984 -8027589 8298291 404 -8032984 270989 -8298512 8331791 -8061254 275700 33298 -8331858 8331858 288223780707024950 2200618729396 -288223780707025017 288223780707025267 -2200618727009 2200618726782 -43660 43410 -2200618642215 2200618598784 43675 2200618642215 43647 -2200615038164 -288221580083654996 -43443 -2200614994721 2200615038406 -11133138 -11133381 242 -2200618642537 2200629775676 11133404 2200618642295 11133381 -11176801 563350 10613459 523267 -516867 -623104 616699 7936 -8178 8177 -7934 -11176825 11133398 -2200629775660 2200618598836 -2200618598878 2200618650472 11125480 -12 -11126590 11750075 -11177090 11177092 2200618640876 -2200618642449 -11133411 -43668 -2200618683440 -11177088 11177067 -627 -56389 119354 -62343 27 11177056 -11177054 -18900 18903 21240 18666 11177054 -11133382 11133414 2200618584186 -15028909 15028910 -2200629860492 2200618683435 22435 -62342 -18667 -44298 44301 -44302 -621 620 506375 -569340 62968 -62968 44300 11133413 -11177091 11177057 43423 -2200618642214 -612 11177241 -11177254 46372 -2304 -44068 -44031 9 44022 -43398 -2200618568527 2200618567873 46337 -46336 587 45984 11131105 -2200629752750 2200618621442 11131104 -11177715 46616 -2200615041497 2200615041497 -11130834 -11130837 -46335 46327 -288223780707371318 3220756 -3220756 3220755 -3220686 -72 8642232 -5421475 5422087 -5421880 5421867 -5421869 288223780704150633 -2200618731700 2200618729063 -46359 46603 -2200618644763 2200618644762 -2200615020925 2200615020925 -288223780698729284 -5661400 5661430 -8643759 8801919 -8210146 2389352 -2389352 8050514 -8050514 -8642236 8647354 -615 -3895 -5666453 -2981193 8642354 -8642841 8647637 4398021540882 5666450 -8647649 2390361 -4397631498088 -2071448 4397638782064 -4397636737800 -4397633618767 -1601904 1601904 4397634160365 5821231 -8802423 -4397631179171 4397631179170 -4397629107725 4397636776486 1600077 -1601903 29929 4397636310964 -4397636340894 4397629137691 8802421 -8810614 -4397629107727 4397629107727 -4397629134911 27184 -469485 469485 4397629107728 8802420 -8802420 -4398018559541 389451812 -469546 469546 -27184 4397629577199 -4398018559542 389451813 -8810615 2981191 -2981190 -2071445 2044261 -1590377 -11525 132451957 4397635220670 -8802422 -4397631167647 -132451953 132430624 -21338 -5821231 -4397634160361 4397638378386 -7199217 7199217 -4397638366863 4397634148844 -4398021540770 4398025758789 -4397636277382 4397629078167 7199238 -5821222 5661152 -5661041 5666460 -5149 -5661304 5665544 -5665529 5661276 -4397637720649 4397632059374 5667801 -8154153 8147738 5423073 158160 -8801919 2981129 5666236 -419745 420057 -8810621 8642356 -5661037 5661445 -8642775 3220686 5426901 -274453 -5152446 -239557 5392003 274153 -8642625 3220754 -3220754 3220685 288223780704150632 2200618731700 -288223780707371386 288223780707371636 -2200618729313 2200618729086 -46338 46338 2200618644519 -46337 -2200614994917 -288221580089109379 -46612 -2200614994883 2200615041496 -11131076 2200618644841 -46349 46349 11131077 -11177433 11177432 517376 -520963 -619008 619008 11126740 -4101 11130839 -11130840 -46372 46345 -2200618644584 -11177714 11177716 2200618643181 11131107 -11131107 -2200618644754 2200618682813 -11177712 569345 -569343 46582 -46603 -56388 -62962 62964 -62963 62963 11114709 -11114710 -16598 11131344 23544 16362 23059 -11154617 11154618 3897835 -46606 11177680 -11177683 -23544 -522740 522739 506378 -506379 -506380 -506376 -16365 11131110 -11131108 11131309 -11177660 -2200618598167 569356 46359 10607897 -10607910 -522736 518912 4060 569381 -523009 523018 -523018 -46326 -2200618567903 2200619137217 -4060 4095 248 -565531 565284 10612430 -10612148 10612182 -10612183 4097 -4105 -288228178726450032 389573455 -50055 4397628772353 -4397628772353 50055 -37642 4397637826093 -9310343 7711347 -7711345 9310341 -9310341 9310339 -4397637788453 -50054 -6879 56933 4397628722299 50054 12413 4397636227097 1598996 -9310339 -9310336 9310334 -9310333 9310333 -9310332 -4397617025709 9991 -9990 4397617269888 -4397617259898 -9989 -11345356 -748223 12093577 4397626336041 -4397507443552 -118892489 118892474 4397498046266 -4397498046266 4397498046329 86902 -86902 -4397616938803 118892478 4397498046294 -4397616938792 10677 4397617259211 687 -11356032 12104254 118881726 -118881726 4397626325364 -9397476 -4397616991046 118946418 -118946418 63157 118883264 -118893933 4397626336033 -4397507442094 -118893940 118893941 -118893941 4397617269881 118883959 -118893942 -11345362 12093585 -12093585 130985980 -118892395 4397616938557 9397476 -10040591 -4397628339032 130935564 -118891975 -12043589 12043588 118891980 -118891980 4397626336035 -4397626336036 118891986 4397498042255 -4397616934242 4397617269883 -9986 4397626336036 -4397637681396 -698226 12043584 -12093582 49997 4397638379622 -9066153 -4397629363465 -118892401 4397616938562 -4397498046704 4397498378023 -4397628833215 130455197 -130480229 4397636714445 -4397506234214 -131006786 551593 4397628833209 130400398 4397498097176 -4397628872566 374998 4397636689407 -4397636611504 -604060 106540 699901 4397637619078 -4397637619078 -202381 202381 4397636409122 -7856198 -4397629208207 374992 -419617 130820009 -130322489 4397628552925 -4397628552925 -280290 130400392 4397506289015 806441 4397628308729 244189 9066159 -9310348 -4397617015799 4397624722968 -4397638364251 1516475 4397636847776 -7462981 -4397498375033 4397505838014 1587810 4397636776441 -4397638350651 4397638350678 -4397636847804 -71337 4397629140609 -4397628626986 -9310345 -4397629069286 4397638379631 9310342 -9310340 9310340 -9310337 9310337 -4397617025703 9989 -11355345 11345355 11355345 4397626336038 -4397626336037 9986 12093581 4397617269885 -4397629363466 12093580 -12043583 130935539 -130935539 12043582 -4397626336035 9984 12093584 4397617269882 12093583 
Potential of Offsets elements: 28.3114 28.3114 28.3114 28.3114 28.3114 28.3114 28.3114 28.3114 1773.11 674.311 28.3114 1735.31 28.3114 28.3114 28.3114 1699.82 28.3114 46.3114 28.3114 28.3114 28.3114 76.3114 28.3114 28.3114 28.3114 28.3114 28.3114 28.3114 28.3114 28.3114 28.3114 28.3114 28.3114 28.3114 28.3114 1051.31 28.3114 28.3114 28.3114 28.3114 28.3114 28.3114 28.3114 28.3114 28.3114 28.3114 28.3114 28.3114 29.3114 28.3114 28.3114 112.311 303.311 341.311 181.311 48.3114 49.3114 217.311 149.311 521.311 61.3114 116.311 268.311 163.311 49.3114 464.311 188.311 56.3114 947.311 295.311 177.311 28.3114 28.3114 218.311 44.3114 58.3114 85.3114 64.3114 250.311 112.311 56.3114 28.3114 28.3114 28.3114 28.3114 392.311 28.3114 28.3114 28.3114 28.3114 28.3114 28.3114 28.3114 28.3114 28.3114 28.3114 28.3114 28.3114 28.3114 28.3114 28.3114 28.3114 28.3114 28.3114 28.3114 28.3114 28.3114 28.3114 28.3114 28.3114 28.3114 28.3114 28.3114 28.3114 28.3114 28.3114 28.3114 40.3114 28.3114 28.3114 28.3114 28.3114 28.3114 28.3114 28.3114 28.3114 28.3114 28.3114 28.3114 28.3114 862.311 28.3114 28.3114 28.3114 28.3114 28.3114 28.3114 28.3114 28.3114 28.3114 28.3114 28.3114 28.3114 28.3114 28.3114 28.3114 28.3114 28.3114 28.3114 29.3114 30.3114 28.3114 28.3114 28.3114 28.3114 28.3114 28.3114 37.3114 73.3114 91.3114 94.3114 88.3114 127.311 92.3114 49.3114 28.3114 28.3114 28.3114 98.3114 93.3114 136.311 46.3114 32.3114 94.3114 149.311 28.3114 424.311 32.3114 37.3114 58.3114 124.311 172.311 30.3114 28.3114 28.3114 28.3114 28.3114 28.3114 28.3114 28.3114 28.3114 28.3114 28.3114 28.3114 28.3114 472.311 28.3114 28.3114 28.3114 28.3114 28.3114 30.3114 28.3114 28.3114 28.3114 28.3114 28.3114 28.3114 83.3114 28.3114 28.3114 28.3114 28.3114 28.3114 28.3114 28.3114 28.3114 28.3114 28.3114 28.3114 28.3114 28.3114 28.3114 84.3114 28.3114 82.3114 28.3114 28.3114 28.3114 28.3114 28.3114 28.3114 28.3114 28.3114 28.3114 28.3114 28.3114 28.3114 28.3114 456.311 28.3114 28.3114 28.3114 28.3114 28.3114 28.3114 28.3114 28.3114 28.3114 29.3114 91.3114 28.3114 28.3114 85.3114 28.3114 28.3114 28.3114 28.3114 28.3114 28.3114 28.3114 51.3114 54.3114 28.3114 28.3114 28.3114 28.3114 28.3114 28.3114 30.3114 28.3114 28.3114 320.311 28.3114 28.3114 28.3114 83.3114 28.3114 28.3114 28.3114 28.3114 28.3114 43.3114 28.3114 28.3114 28.3114 28.3114 28.3114 28.3114 28.3114 28.3114 28.3114 28.3114 30.3114 31.3114 28.3114 145.311 28.3114 28.3114 52.3114 28.3114 31.3114 50.3114 28.3114 28.3114 28.3114 28.3114 28.3114 28.3114 28.3114 28.3114 28.3114 28.3114 28.3114 28.3114 28.3114 28.3114 28.3114 28.3114 28.3114 28.3114 28.3114 28.3114 28.3114 28.3114 28.3114 28.3114 28.3114 28.3114 28.3114 28.3114 28.3114 28.3114 28.3114 28.3114 28.3114 28.3114 28.3114 37.3114 124.311 31.3114 28.3114 28.3114 28.3114 28.3114 28.3114 28.3114 28.3114 28.3114 28.3114 1099.31 989.311 28.3114 28.3114 28.3114 28.3114 28.3114 28.3114 28.3114 28.3114 28.3114 28.3114 28.3114 28.3114 28.3114 28.3114 28.3114 28.3114 56.3114 28.3114 28.3114 28.3114 28.3114 28.3114 28.3114 28.3114 28.3114 28.3114 28.3114 28.3114 28.3114 277.311 28.3114 28.3114 28.3114 28.3114 28.3114 28.3114 28.3114 40.3114 28.3114 28.3114 28.3114 28.3114 28.3114 28.3114 28.3114 28.3114 28.3114 28.3114 28.3114 28.3114 28.3114 28.3114 28.3114 28.3114 28.3114 28.3114 28.3114 28.3114 32.3114 28.3114 54.3114 28.3114 28.3114 28.3114 28.3114 28.3114 28.3114 28.3114 28.3114 28.3114 28.3114 28.3114 28.3114 28.3114 28.3114 28.3114 28.3114 28.3114 28.3114 28.3114 28.3114 28.3114 28.3114 28.3114 28.3114 28.3114 28.3114 28.3114 28.3114 119.311 229.311 28.3114 28.3114 28.3114 28.3114 28.3114 28.3114 28.3114 28.3114 28.3114 28.3114 28.3114 28.3114 28.3114 28.3114 28.3114 28.3114 28.3114 28.3114 28.3114 28.3114 31.3114 28.3114 28.3114 28.3114 28.3114 28.3114 28.3114 28.3114 28.3114 28.3114 28.3114 28.3114 28.3114 80.3114 28.3114 28.3114 28.3114 28.3114 80.3114 28.3114 39.3114 28.3114 28.3114 28.3114 28.3114 28.3114 28.3114 28.3114 28.3114 28.3114 28.3114 28.3114 28.3114 28.3114 28.3114 28.3114 28.3114 28.3114 28.3114 28.3114 28.3114 28.3114 28.3114 28.3114 28.3114 28.3114 28.3114 28.3114 28.3114 28.3114 28.3114 28.3114 28.3114 28.3114 28.3114 28.3114 28.3114 28.3114 28.3114 28.3114 28.3114 28.3114 83.3114 28.3114 28.3114 28.3114 28.3114 28.3114 28.3114 28.3114 28.3114 28.3114 28.3114 28.3114 28.3114 28.3114 28.3114 28.3114 28.3114 28.3114 28.3114 28.3114 28.3114 28.3114 28.3114 28.3114 28.3114 28.3114 28.3114 28.3114 28.3114 28.3114 28.3114 28.3114 28.3114 28.3114 28.3114 28.3114 82.3114 28.3114 58.3114 28.3114 32.3114 28.3114 28.3114 28.3114 28.3114 28.3114 28.3114 28.3114 28.3114 28.3114 28.3114 28.3114 28.3114 28.3114 28.3114 72.3114 28.3114 28.3114 28.3114 28.3114 28.3114 28.3114 28.3114 28.3114 28.3114 28.3114 28.3114 28.3114 28.3114 28.3114 28.3114 28.3114 28.3114 28.3114 28.3114 28.3114 28.3114 28.3114 28.3114 28.3114 29.3114 28.3114 28.3114 28.3114 28.3114 28.3114 28.3114 28.3114 30.3114 28.3114 28.3114 28.3114 28.3114 28.3114 28.3114 28.3114 28.3114 28.3114 28.3114 28.3114 28.3114 28.3114 28.3114 30.3114 78.3114 28.3114 28.3114 28.3114 28.3114 28.3114 28.3114 28.3114 28.3114 28.3114 28.3114 28.3114 28.3114 28.3114 28.3114 28.3114 28.3114 28.3114 28.3114 28.3114 28.3114 28.3114 28.3114 28.3114 28.3114 28.3114 28.3114 28.3114 28.3114 28.3114 28.3114 28.3114 28.3114 28.3114 28.3114 28.3114 28.3114 279.311 28.3114 28.3114 44.3114 30.3114 28.3114 40.3114 28.3114 225.311 28.3114 28.3114 113.311 28.3114 28.3114 77.3114 98.3114 28.3114 28.3114 28.3114 28.3114 55.3114 28.3114 28.3114 28.3114 32.3114 28.3114 28.3114 28.3114 28.3114 28.3114 28.3114 28.3114 28.3114 28.3114 28.3114 28.3114 28.3114 28.3114 28.3114 28.3114 124.311 28.3114 62.3114 28.3114 28.3114 32.3114 28.3114 28.3114 28.3114 28.3114 28.3114 28.3114 28.3114 28.3114 28.3114 28.3114 28.3114 28.3114 28.3114 28.3114 28.3114 28.3114 28.3114 28.3114 28.3114 28.3114 28.3114 28.3114 28.3114 28.3114 28.3114 28.3114 28.3114 28.3114 28.3114 28.3114 28.3114 28.3114 28.3114 28.3114 28.3114 28.3114 28.3114 28.3114 28.3114 28.3114 28.3114 28.3114 28.3114 28.3114 28.3114 28.3114 28.3114 40.3114 30.3114 40.3114 28.3114 28.3114 28.3114 28.3114 28.3114 28.3114 28.3114 28.3114 28.3114 28.3114 28.3114 28.3114 28.3114 28.3114 28.3114 28.3114 28.3114 28.3114 28.3114 28.3114 28.3114 28.3114 28.3114 28.3114 28.3114 28.3114 28.3114 28.3114 28.3114 28.3114 28.3114 28.3114 28.3114 28.3114 28.3114 28.3114 28.3114 28.3114 28.3114 28.3114 28.3114 28.3114 28.3114 28.3114 73.3114 28.3114 28.3114 28.3114 28.3114 28.3114 28.3114 28.3114 28.3114 28.3114 28.3114 28.3114 28.3114 28.3114 28.3114 28.3114 28.3114 28.3114 28.3114 28.3114 28.3114 28.3114 28.3114 28.3114 28.3114 28.3114 28.3114 28.3114 28.3114 28.3114 28.3114 28.3114 28.3114 28.3114 28.3114 28.3114 28.3114 28.3114 28.3114 28.3114 28.3114 28.3114 462.311 28.3114 28.3114 28.3114 28.3114 28.3114 28.3114 28.3114 28.3114 28.3114 28.3114 28.3114 28.3114 28.3114 28.3114 28.3114 28.3114 28.3114 28.3114 28.3114 28.3114 28.3114 28.3114 28.3114 28.3114 28.3114 28.3114 28.3114 28.3114 28.3114 28.3114 28.3114 28.3114 28.3114 28.3114 28.3114 28.3114 28.3114 28.3114 28.3114 28.3114 28.3114 28.3114 28.3114 28.3114 28.3114 28.3114 28.3114 92.3114 28.3114 28.3114 28.3114 28.3114 28.3114 28.3114 28.3114 28.3114 28.3114 28.3114 28.3114 28.3114 28.3114 28.3114 1008.31 28.3114 28.3114 28.3114 28.3114 28.3114 28.3114 28.3114 28.3114 28.3114 522.311 28.3114 28.3114 28.3114 29.3114 352.311 28.3114 28.3114 28.3114 60.3114 28.3114 28.3114 28.3114 28.3114 28.3114 28.3114 28.3114 28.3114 28.3114 28.3114 28.3114 28.3114 28.3114 142.311 28.3114 28.3114 28.3114 28.3114 28.3114 28.3114 28.3114 28.3114 28.3114 28.3114 28.3114 28.3114 28.3114 28.3114 28.3114 28.3114 28.3114 28.3114 28.3114 28.3114 28.3114 28.3114 159.311 28.3114 28.3114 28.3114 28.3114 28.3114 28.3114 28.3114 28.3114 191.311 28.3114 28.3114 28.3114 28.3114 28.3114 28.3114 52.3114 28.3114 28.3114 28.3114 28.3114 28.3114 78.3114 28.3114 28.3114 44.3114 37.3114 28.3114 28.3114 28.3114 28.3114 28.3114 28.3114 28.3114 28.3114 28.3114 28.3114 28.3114 28.3114 28.3114 28.3114 28.3114 28.3114 28.3114 28.3114 28.3114 28.3114 28.3114 28.3114 28.3114 28.3114 28.3114 28.3114 28.3114 28.3114 28.3114 28.3114 28.3114 28.3114 28.3114 28.3114 28.3114 28.3114 28.3114 30.3114 28.3114 70.3114 28.3114 28.3114 28.3114 28.3114 28.3114 28.3114 28.3114 28.3114 28.3114 28.3114 28.3114 28.3114 28.3114 28.3114 28.3114 28.3114 28.3114 28.3114 28.3114 28.3114 43.3114 28.3114 28.3114 28.3114 28.3114 28.3114 28.3114 28.3114 28.3114 28.3114 28.3114 28.3114 28.3114 28.3114 28.3114 28.3114 28.3114 28.3114 28.3114 28.3114 28.3114 28.3114 28.3114 28.3114 28.3114 28.3114 28.3114 28.3114 28.3114 28.3114 28.3114 28.3114 28.3114 28.3114 28.3114 28.3114 28.3114 28.3114 28.3114 113.311 28.3114 28.3114 28.3114 28.3114 28.3114 28.3114 28.3114 28.3114 28.3114 28.3114 28.3114 28.3114 28.3114 28.3114 28.3114 28.3114 28.3114 28.3114 28.3114 28.3114 28.3114 28.3114 28.3114 28.3114 28.3114 28.3114 28.3114 28.3114 28.3114 28.3114 28.3114 28.3114 28.3114 28.3114 28.3114 28.3114 28.3114 28.3114 28.3114 28.3114 28.3114 28.3114 28.3114 28.3114 28.3114 28.3114 28.3114 28.3114 28.3114 28.3114 28.3114 28.3114 28.3114 28.3114 28.3114 28.3114 28.3114 28.3114 28.3114 28.3114 28.3114 28.3114 28.3114 28.3114 28.3114 28.3114 28.3114 28.3114 28.3114 28.3114 28.3114 28.3114 28.3114 28.3114 28.3114 28.3114 28.3114 28.3114 28.3114 28.3114 28.3114 28.3114 28.3114 28.3114 28.3114 28.3114 28.3114 28.3114 28.3114 51.3114 28.3114 28.3114 28.3114 28.3114 28.3114 28.3114 28.3114 28.3114 30.3114 28.3114 28.3114 28.3114 28.3114 28.3114 28.3114 28.3114 28.3114 28.3114 28.3114 28.3114 28.3114 28.3114 28.3114 28.3114 28.3114 28.3114 28.3114 28.3114 28.3114 28.3114 28.3114 28.3114 28.3114 28.3114 28.3114 28.3114 28.3114 28.3114 28.3114 28.3114 28.3114 28.3114 28.3114 28.3114 28.3114 28.3114 28.3114 28.3114 28.3114 28.3114 28.3114 28.3114 28.3114 28.3114 28.3114 28.3114 28.3114 30.3114 32.3114 28.3114 28.3114 28.3114 28.3114 28.3114 28.3114 28.3114 28.3114 28.3114 28.3114 28.3114 28.3114 28.3114 28.3114 28.3114 28.3114 28.3114 28.3114 28.3114 28.3114 28.3114 28.3114 28.3114 28.3114 28.3114 28.3114 28.3114 28.3114 28.3114 28.3114 28.3114 28.3114 28.3114 28.3114 28.3114 28.3114 28.3114 28.3114 28.3114 28.3114 28.3114 74.3114 28.3114 28.3114 28.3114 28.3114 28.3114 28.3114 28.3114 28.3114 28.3114 28.3114 28.3114 28.3114 28.3114 28.3114 28.3114 28.3114 28.3114 28.3114 28.3114 28.3114 28.3114 28.3114 28.3114 28.3114 28.3114 28.3114 28.3114 28.3114 28.3114 28.3114 28.3114 28.3114 28.3114 28.3114 28.3114 28.3114 28.3114 28.3114 34.3114 28.3114 36.3114 28.3114 28.3114 28.3114 28.3114 28.3114 28.3114 28.3114 28.3114 28.3114 28.3114 28.3114 28.3114 28.3114 28.3114 28.3114 28.3114 28.3114 28.3114 28.3114 28.3114 28.3114 28.3114 28.3114 28.3114 28.3114 28.3114 28.3114 28.3114 28.3114 28.3114 28.3114 28.3114 28.3114 28.3114 28.3114 28.3114 28.3114 28.3114 28.3114 28.3114 28.3114 28.3114 28.3114 28.3114 28.3114 28.3114 28.3114 28.3114 66.3114 484.311 28.3114 28.3114 28.3114 28.3114 28.3114 28.3114 28.3114 28.3114 28.3114 31.3114 28.3114 28.3114 28.3114 28.3114 28.3114 28.3114 28.3114 28.3114 28.3114 28.3114 31.3114 28.3114 28.3114 66.3114 28.3114 28.3114 28.3114 28.3114 28.3114 28.3114 28.3114 28.3114 28.3114 28.3114 28.3114 28.3114 28.3114 28.3114 28.3114 28.3114 28.3114 28.3114 28.3114 28.3114 28.3114 28.3114 28.3114 28.3114 28.3114 28.3114 28.3114 28.3114 28.3114 28.3114 28.3114 28.3114 28.3114 28.3114 28.3114 28.3114 28.3114 28.3114 28.3114 28.3114 28.3114 28.3114 28.3114 33.3114 28.3114 28.3114 28.3114 28.3114 28.3114 28.3114 28.3114 28.3114 28.3114 28.3114 28.3114 28.3114 28.3114 28.3114 28.3114 28.3114 28.3114 28.3114 28.3114 28.3114 28.3114 28.3114 28.3114 28.3114 28.3114 28.3114 28.3114 28.3114 28.3114 28.3114 28.3114 28.3114 28.3114 28.3114 28.3114 28.3114 28.3114 28.3114 28.3114 28.3114 28.3114 28.3114 28.3114 28.3114 28.3114 28.3114 34.3114 48.3114 28.3114 28.3114 28.3114 28.3114 28.3114 28.3114 28.3114 28.3114 38.3114 28.3114 30.3114 28.3114 28.3114 28.3114 28.3114 28.3114 28.3114 172.311 28.3114 28.3114 28.3114 28.3114 28.3114 28.3114 28.3114 28.3114 28.3114 28.3114 28.3114 28.3114 28.3114 28.3114 28.3114 28.3114 28.3114 28.3114 28.3114 28.3114 28.3114 28.3114 28.3114 28.3114 28.3114 28.3114 28.3114 28.3114 28.3114 28.3114 28.3114 28.3114 28.3114 28.3114 28.3114 28.3114 28.3114 28.3114 28.3114 28.3114 28.3114 28.3114 28.3114 28.3114 28.3114 32.3114 28.3114 28.3114 28.3114 28.3114 28.3114 28.3114 28.3114 64.3114 28.3114 28.3114 28.3114 28.3114 28.3114 28.3114 28.3114 30.3114 32.3114 28.3114 28.3114 28.3114 28.3114 28.3114 28.3114 28.3114 28.3114 28.3114 28.3114 28.3114 28.3114 28.3114 28.3114 28.3114 28.3114 28.3114 28.3114 28.3114 28.3114 28.3114 28.3114 28.3114 28.3114 28.3114 28.3114 28.3114 28.3114 28.3114 28.3114 28.3114 28.3114 28.3114 28.3114 28.3114 28.3114 28.3114 28.3114 28.3114 28.3114 28.3114 28.3114 28.3114 28.3114 28.3114 28.3114 28.3114 28.3114 28.3114 28.3114 28.3114 28.3114 28.3114 28.3114 28.3114 28.3114 28.3114 28.3114 692.311 28.3114 28.3114 28.3114 40.3114 28.3114 28.3114 28.3114 28.3114 28.3114 28.3114 28.3114 28.3114 28.3114 28.3114 28.3114 44.3114 28.3114 28.3114 28.3114 28.3114 28.3114 28.3114 28.3114 28.3114 28.3114 28.3114 28.3114 28.3114 28.3114 28.3114 30.3114 28.3114 28.3114 28.3114 28.3114 28.3114 28.3114 28.3114 28.3114 28.3114 28.3114 28.3114 28.3114 28.3114 28.3114 28.3114 28.3114 28.3114 28.3114 28.3114 28.3114 28.3114 28.3114 28.3114 28.3114 100.311 28.3114 28.3114 28.3114 28.3114 28.3114 28.3114 28.3114 28.3114 28.3114 28.3114 28.3114 28.3114 28.3114 28.3114 28.3114 28.3114 28.3114 28.3114 28.3114 28.3114 28.3114 28.3114 28.3114 28.3114 28.3114 37.3114 28.3114 28.3114 28.3114 28.3114 28.3114 28.3114 28.3114 28.3114 28.3114 28.3114 28.3114 28.3114 28.3114 28.3114 28.3114 28.3114 28.3114 28.3114 28.3114 28.3114 28.3114 28.3114 28.3114 28.3114 28.3114 28.3114 28.3114 28.3114 28.3114 28.3114 28.3114 28.3114 28.3114 28.3114 28.3114 28.3114 28.3114 28.3114 28.3114 28.3114 28.3114 28.3114 28.3114 28.3114 28.3114 28.3114 28.3114 28.3114 28.3114 28.3114 28.3114 28.3114 28.3114 28.3114 28.3114 28.3114 28.3114 28.3114 28.3114 28.3114 28.3114 28.3114 28.3114 28.3114 28.3114 28.3114 28.3114 28.3114 28.3114 28.3114 28.3114 28.3114 28.3114 28.3114 28.3114 28.3114 28.3114 28.3114 28.3114 28.3114 28.3114 28.3114 28.3114 28.3114 28.3114 28.3114 28.3114 28.3114 28.3114 28.3114 28.3114 28.3114 28.3114 28.3114 28.3114 28.3114 28.3114 28.3114 28.3114 28.3114 28.3114 28.3114 28.3114 28.3114 28.3114 28.3114 28.3114 28.3114 28.3114 28.3114 28.3114 28.3114 28.3114 28.3114 28.3114 28.3114 28.3114 28.3114 28.3114 28.3114 28.3114 28.3114 28.3114 28.3114 28.3114 28.3114 28.3114 28.3114 28.3114 28.3114 28.3114 28.3114 28.3114 28.3114 28.3114 28.3114 28.3114 28.3114 28.3114 28.3114 28.3114 28.3114 28.3114 28.3114 28.3114 28.3114 28.3114 28.3114 28.3114 28.3114 28.3114 28.3114 28.3114 28.3114 28.3114 28.3114 28.3114 28.3114 28.3114 28.3114 28.3114 28.3114 28.3114 28.3114 28.3114 28.3114 28.3114 28.3114 28.3114 28.3114 28.3114 28.3114 28.3114 28.3114 28.3114 28.3114 28.3114 28.3114 28.3114 28.3114 28.3114 28.3114 28.3114 28.3114 28.3114 28.3114 28.3114 28.3114 28.3114 28.3114 28.3114 28.3114 28.3114 28.3114 28.3114 28.3114 28.3114 28.3114 28.3114 28.3114 28.3114 28.3114 28.3114 28.3114 28.3114 28.3114 28.3114 28.3114 28.3114 28.3114 28.3114 28.3114 28.3114 28.3114 28.3114 28.3114 28.3114 28.3114 28.3114 28.3114 28.3114 28.3114 28.3114 28.3114 28.3114 28.3114 28.3114 28.3114 28.3114 28.3114 40.3114 28.3114 34.3114 28.3114 28.3114 28.3114 191.311 28.3114 28.3114 99.3114 28.3114 28.3114 28.3114 28.3114 28.3114 28.3114 28.3114 28.3114 28.3114 28.3114 28.3114 28.3114 28.3114 28.3114 28.3114 28.3114 28.3114 28.3114 28.3114 28.3114 28.3114 28.3114 28.3114 28.3114 28.3114 28.3114 68.3114 49.3114 46.3114 61.3114 34.3114 28.3114 28.3114 28.3114 28.3114 28.3114 28.3114 28.3114 28.3114 28.3114 28.3114 28.3114 28.3114 28.3114 28.3114 28.3114 28.3114 28.3114 28.3114 28.3114 28.3114 28.3114 28.3114 28.3114 28.3114 28.3114 28.3114 28.3114 28.3114 28.3114 28.3114 28.3114 28.3114 28.3114 28.3114 28.3114 28.3114 28.3114 28.3114 28.3114 28.3114 28.3114 28.3114 28.3114 28.3114 28.3114 28.3114 28.3114 28.3114 28.3114 28.3114 28.3114 28.3114 28.3114 33.3114 28.3114 28.3114 28.3114 28.3114 28.3114 28.3114 28.3114 28.3114 28.3114 28.3114 28.3114 28.3114 28.3114 28.3114 28.3114 28.3114 28.3114 28.3114 60.3114 28.3114 28.3114 28.3114 28.3114 28.3114 28.3114 28.3114 28.3114 28.3114 28.3114 28.3114 28.3114 28.3114 28.3114 28.3114 28.3114 28.3114 28.3114 28.3114 28.3114 28.3114 28.3114 28.3114 28.3114 28.3114 28.3114 28.3114 28.3114 28.3114 28.3114 28.3114 28.3114 28.3114 28.3114 28.3114 28.3114 28.3114 28.3114 28.3114 28.3114 28.3114 28.3114 28.3114 28.3114 28.3114 28.3114 28.3114 28.3114 28.3114 28.3114 28.3114 28.3114 28.3114 28.3114 28.3114 28.3114 28.3114 28.3114 28.3114 28.3114 28.3114 28.3114 28.3114 28.3114 28.3114 28.3114 28.3114 28.3114 28.3114 28.3114 28.3114 28.3114 28.3114 28.3114 28.3114 28.3114 28.3114 28.3114 28.3114 28.3114 28.3114 28.3114 28.3114 28.3114 28.3114 28.3114 28.3114 28.3114 28.3114 
rewards of Offsets elements: 0 0 0 0 0 0 0 0 1773 646 0 1707 0 0 0 1699 0 18 0 0 0 48 0 0 0 0 0 0 0 0 0 0 0 0 0 1023 0 0 0 0 0 0 0 0 0 0 0 0 1 0 0 84 275 313 153 20 21 189 121 493 33 88 240 135 21 436 160 28 919 267 149 0 0 190 16 30 57 36 222 84 28 0 0 0 0 364 0 0 0 0 0 0 0 0 0 0 0 0 0 0 0 0 0 0 0 0 0 0 0 0 0 0 0 0 0 0 0 12 0 0 0 0 0 0 0 0 0 0 0 0 834 0 0 0 0 0 0 0 0 0 0 0 0 0 0 0 0 0 0 1 2 0 0 0 0 0 0 9 45 63 66 60 99 64 21 0 0 0 70 65 108 18 4 66 121 0 396 4 9 30 96 144 2 0 0 0 0 0 0 0 0 0 0 0 0 444 0 0 0 0 0 2 0 0 0 0 0 0 55 0 0 0 0 0 0 0 0 0 0 0 0 0 0 56 0 54 0 0 0 0 0 0 0 0 0 0 0 0 0 428 0 0 0 0 0 0 0 0 0 1 63 0 0 57 0 0 0 0 0 0 0 23 26 0 0 0 0 0 0 2 0 0 292 0 0 0 55 0 0 0 0 0 15 0 0 0 0 0 0 0 0 0 0 2 3 0 117 0 0 24 0 3 22 0 0 0 0 0 0 0 0 0 0 0 0 0 0 0 0 0 0 0 0 0 0 0 0 0 0 0 0 0 0 0 0 0 0 0 9 96 3 0 0 0 0 0 0 0 0 0 1071 961 0 0 0 0 0 0 0 0 0 0 0 0 0 0 0 0 28 0 0 0 0 0 0 0 0 0 0 0 0 249 0 0 0 0 0 0 0 12 0 0 0 0 0 0 0 0 0 0 0 0 0 0 0 0 0 0 0 0 4 0 26 0 0 0 0 0 0 0 0 0 0 0 0 0 0 0 0 0 0 0 0 0 0 0 0 0 0 0 0 91 201 0 0 0 0 0 0 0 0 0 0 0 0 0 0 0 0 0 0 0 0 3 0 0 0 0 0 0 0 0 0 0 0 0 52 0 0 0 0 52 0 11 0 0 0 0 0 0 0 0 0 0 0 0 0 0 0 0 0 0 0 0 0 0 0 0 0 0 0 0 0 0 0 0 0 0 0 0 0 0 0 0 0 55 0 0 0 0 0 0 0 0 0 0 0 0 0 0 0 0 0 0 0 0 0 0 0 0 0 0 0 0 0 0 0 0 0 0 0 54 0 30 0 4 0 0 0 0 0 0 0 0 0 0 0 0 0 0 44 0 0 0 0 0 0 0 0 0 0 0 0 0 0 0 0 0 0 0 0 0 0 0 0 1 0 0 0 0 0 0 0 2 0 0 0 0 0 0 0 0 0 0 0 0 0 0 2 50 0 0 0 0 0 0 0 0 0 0 0 0 0 0 0 0 0 0 0 0 0 0 0 0 0 0 0 0 0 0 0 0 0 0 0 0 251 0 0 16 2 0 12 0 197 0 0 85 0 0 49 70 0 0 0 0 27 0 0 0 4 0 0 0 0 0 0 0 0 0 0 0 0 0 0 0 96 0 34 0 0 4 0 0 0 0 0 0 0 0 0 0 0 0 0 0 0 0 0 0 0 0 0 0 0 0 0 0 0 0 0 0 0 0 0 0 0 0 0 0 0 0 0 0 0 0 0 0 0 12 2 12 0 0 0 0 0 0 0 0 0 0 0 0 0 0 0 0 0 0 0 0 0 0 0 0 0 0 0 0 0 0 0 0 0 0 0 0 0 0 0 0 0 0 0 0 45 0 0 0 0 0 0 0 0 0 0 0 0 0 0 0 0 0 0 0 0 0 0 0 0 0 0 0 0 0 0 0 0 0 0 0 0 0 0 0 0 0 434 0 0 0 0 0 0 0 0 0 0 0 0 0 0 0 0 0 0 0 0 0 0 0 0 0 0 0 0 0 0 0 0 0 0 0 0 0 0 0 0 0 0 0 0 0 0 0 64 0 0 0 0 0 0 0 0 0 0 0 0 0 0 980 0 0 0 0 0 0 0 0 0 494 0 0 0 1 324 0 0 0 32 0 0 0 0 0 0 0 0 0 0 0 0 0 114 0 0 0 0 0 0 0 0 0 0 0 0 0 0 0 0 0 0 0 0 0 0 131 0 0 0 0 0 0 0 0 163 0 0 0 0 0 0 24 0 0 0 0 0 50 0 0 16 9 0 0 0 0 0 0 0 0 0 0 0 0 0 0 0 0 0 0 0 0 0 0 0 0 0 0 0 0 0 0 0 0 0 0 0 0 0 2 0 42 0 0 0 0 0 0 0 0 0 0 0 0 0 0 0 0 0 0 0 0 15 0 0 0 0 0 0 0 0 0 0 0 0 0 0 0 0 0 0 0 0 0 0 0 0 0 0 0 0 0 0 0 0 0 0 0 0 0 0 85 0 0 0 0 0 0 0 0 0 0 0 0 0 0 0 0 0 0 0 0 0 0 0 0 0 0 0 0 0 0 0 0 0 0 0 0 0 0 0 0 0 0 0 0 0 0 0 0 0 0 0 0 0 0 0 0 0 0 0 0 0 0 0 0 0 0 0 0 0 0 0 0 0 0 0 0 0 0 0 0 0 0 0 0 0 0 0 0 0 23 0 0 0 0 0 0 0 0 2 0 0 0 0 0 0 0 0 0 0 0 0 0 0 0 0 0 0 0 0 0 0 0 0 0 0 0 0 0 0 0 0 0 0 0 0 0 0 0 0 0 0 0 0 0 0 0 0 2 4 0 0 0 0 0 0 0 0 0 0 0 0 0 0 0 0 0 0 0 0 0 0 0 0 0 0 0 0 0 0 0 0 0 0 0 0 0 0 0 0 0 46 0 0 0 0 0 0 0 0 0 0 0 0 0 0 0 0 0 0 0 0 0 0 0 0 0 0 0 0 0 0 0 0 0 0 0 0 0 0 6 0 8 0 0 0 0 0 0 0 0 0 0 0 0 0 0 0 0 0 0 0 0 0 0 0 0 0 0 0 0 0 0 0 0 0 0 0 0 0 0 0 0 0 0 0 0 0 0 0 0 38 456 0 0 0 0 0 0 0 0 0 3 0 0 0 0 0 0 0 0 0 0 3 0 0 38 0 0 0 0 0 0 0 0 0 0 0 0 0 0 0 0 0 0 0 0 0 0 0 0 0 0 0 0 0 0 0 0 0 0 0 0 0 0 0 0 0 0 0 5 0 0 0 0 0 0 0 0 0 0 0 0 0 0 0 0 0 0 0 0 0 0 0 0 0 0 0 0 0 0 0 0 0 0 0 0 0 0 0 0 0 0 0 0 0 0 6 20 0 0 0 0 0 0 0 0 10 0 2 0 0 0 0 0 0 144 0 0 0 0 0 0 0 0 0 0 0 0 0 0 0 0 0 0 0 0 0 0 0 0 0 0 0 0 0 0 0 0 0 0 0 0 0 0 0 0 0 0 0 0 0 4 0 0 0 0 0 0 0 36 0 0 0 0 0 0 0 2 4 0 0 0 0 0 0 0 0 0 0 0 0 0 0 0 0 0 0 0 0 0 0 0 0 0 0 0 0 0 0 0 0 0 0 0 0 0 0 0 0 0 0 0 0 0 0 0 0 0 0 0 0 0 0 0 0 0 0 664 0 0 0 12 0 0 0 0 0 0 0 0 0 0 0 16 0 0 0 0 0 0 0 0 0 0 0 0 0 0 2 0 0 0 0 0 0 0 0 0 0 0 0 0 0 0 0 0 0 0 0 0 0 0 0 72 0 0 0 0 0 0 0 0 0 0 0 0 0 0 0 0 0 0 0 0 0 0 0 0 0 9 0 0 0 0 0 0 0 0 0 0 0 0 0 0 0 0 0 0 0 0 0 0 0 0 0 0 0 0 0 0 0 0 0 0 0 0 0 0 0 0 0 0 0 0 0 0 0 0 0 0 0 0 0 0 0 0 0 0 0 0 0 0 0 0 0 0 0 0 0 0 0 0 0 0 0 0 0 0 0 0 0 0 0 0 0 0 0 0 0 0 0 0 0 0 0 0 0 0 0 0 0 0 0 0 0 0 0 0 0 0 0 0 0 0 0 0 0 0 0 0 0 0 0 0 0 0 0 0 0 0 0 0 0 0 0 0 0 0 0 0 0 0 0 0 0 0 0 0 0 0 0 0 0 0 0 0 0 0 0 0 0 0 0 0 0 0 0 0 0 0 0 0 0 0 0 0 0 0 0 0 0 0 0 0 0 0 0 0 0 0 0 0 0 0 0 0 0 0 0 0 0 0 0 0 0 0 0 0 0 0 0 0 0 0 0 0 0 0 0 0 0 0 0 0 0 0 0 0 0 0 12 0 6 0 0 0 163 0 0 71 0 0 0 0 0 0 0 0 0 0 0 0 0 0 0 0 0 0 0 0 0 0 0 0 0 0 40 21 18 33 6 0 0 0 0 0 0 0 0 0 0 0 0 0 0 0 0 0 0 0 0 0 0 0 0 0 0 0 0 0 0 0 0 0 0 0 0 0 0 0 0 0 0 0 0 0 0 0 0 0 0 0 0 0 5 0 0 0 0 0 0 0 0 0 0 0 0 0 0 0 0 0 0 32 0 0 0 0 0 0 0 0 0 0 0 0 0 0 0 0 0 0 0 0 0 0 0 0 0 0 0 0 0 0 0 0 0 0 0 0 0 0 0 0 0 0 0 0 0 0 0 0 0 0 0 0 0 0 0 0 0 0 0 0 0 0 0 0 0 0 0 0 0 0 0 0 0 0 0 0 0 0 0 0 0 0 0 0 0 0 0 0 0 Printing Sanity3
offset_index value2147
offset list size2147
reward size2147
potential size2147
-----------------------------------------------------------------------------------------------------------------------------------------------------------------------------------------------------

DRAM Statistics
 CHANNEL 0
 RQ ROW_BUFFER_HIT:      54434  ROW_BUFFER_MISS:     241323
 DBUS_CONGESTED:         75
 WQ ROW_BUFFER_HIT:      20150  ROW_BUFFER_MISS:     185441  FULL:          0

 AVG_CONGESTED_CYCLE: 5
 All warmup complete: 2
Channel 0 Bank busy for read cycles: 0
Channel 0 Bank busy for write cycles: 0
Channel 0
Rank 0
0banks busy for read cycles: 425045954
0banks busy for write cycles: 126662
1banks busy for read cycles: 25323468
1banks busy for write cycles: 17392278
2banks busy for read cycles: 4261319
2banks busy for write cycles: 3557404
3banks busy for read cycles: 881508
3banks busy for write cycles: 1144365
4banks busy for read cycles: 317260
4banks busy for write cycles: 534789
5banks busy for read cycles: 114350
5banks busy for write cycles: 285082
6banks busy for read cycles: 42219
6banks busy for write cycles: 192466
7banks busy for read cycles: 18364
7banks busy for write cycles: 149514
8banks busy for read cycles: 25918
8banks busy for write cycles: 190444

CPU 0 Branch Prediction Accuracy: 99.8263% MPKI: 0.313815 Average ROB Occupancy at Mispredict: 35.1844
Branch types
NOT_BRANCH: 163866778 81.9334%
BRANCH_DIRECT_JUMP: 1746702 0.873351%
BRANCH_INDIRECT: 9682796 4.8414%
BRANCH_CONDITIONAL: 18120126 9.06006%
BRANCH_DIRECT_CALL: 2563120 1.28156%
BRANCH_INDIRECT_CALL: 725676 0.362838%
BRANCH_RETURN: 3294467 1.64723%
BRANCH_OTHER: 0 0%

DRAM PAGES: 1048576
Allocated PAGES: 4255
