
*** ChampSim Multicore Out-of-Order Simulator ***

Warmup Instructions: 50000000
Simulation Instructions: 200000000
Number of CPUs: 1
LLC sets: 2048
LLC ways: 16
Off-chip DRAM Size: 4096 MB Channels: 1 Width: 64-bit Data Rate: 6400 MT/s
CPU 0 runs traces/spec2k17/srv_37.champsimtrace.xz
.xz
BTB has LRU replacement policy
ITLB has LRU replacement policy
DTLB has LRU replacement policy
STLB has LRU replacement policy
L1I has LRU replacement policy
L1D has LRU replacement policy
Initialize SRRIP state for L2C
Initialize DRRIP state for LLC
Offsets elements: 
Potential of Offsets elements: 
rewards of Offsets elements: 
Printing Sanity1
offset list size1615
Offsets elements: 
Potential of Offsets elements: 
rewards of Offsets elements: 858 0 0 0 0 869 0 2 0 0 0 0 396 0 0 14 0 2 445 0 0 0 0 0 573 0 4 0 0 0 0 7 0 0 0 205 154 0 0 0 0 0 0 0 0 0 332 0 0 0 0 436 0 0 0 0 0 0 0 0 0 0 14 0 0 0 0 0 1017 0 0 0 0 2 0 114 873 629 0 0 0 0 0 0 0 0 0 9 0 0 0 0 389 0 0 0 0 8 0 527 38 128 0 0 0 0 0 0 0 0 492 1 0 463 0 0 0 0 0 0 0 18 0 0 8 0 0 1309 0 12 0 0 6 0 0 0 0 2 0 0 0 0 0 0 0 0 0 16 110 0 277 12 102 0 62 77 36 70 45 56 0 32 49 0 0 0 30 72 44 132 121 0 0 165 0 0 0 8 8 36 74 2 8 0 0 0 0 0 10 120 0 12 10 11 18 54 240 10 6 0 308 186 24 0 45 0 0 32 0 0 0 0 0 32 55 117 15 0 0 42 45 30 81 28 0 0 0 0 0 0 0 0 0 0 0 0 0 0 0 0 0 0 0 0 179 0 0 0 0 0 0 0 0 0 0 0 0 0 0 0 0 0 0 0 0 8 0 0 0 0 0 0 0 0 0 0 0 0 0 0 0 0 0 0 2 0 0 1 0 1 0 0 0 0 0 0 0 0 0 0 0 0 0 0 0 0 0 0 0 0 0 0 0 0 0 0 15 0 256 0 0 0 4 0 16 198 0 0 0 0 102 6 0 0 0 0 227 0 0 0 0 0 0 0 0 242 0 5 8 4 40 55 21 0 0 30 0 42 3 32 0 76 1 0 78 0 0 0 0 0 0 0 0 0 0 0 0 0 0 0 12 0 16 0 33 0 67 0 0 0 0 2 242 0 0 70 0 0 0 0 0 0 0 0 0 0 0 0 0 0 0 0 0 0 0 0 0 0 0 0 0 0 0 0 0 0 0 169 0 0 0 2 0 0 0 0 0 0 0 0 0 0 0 0 0 0 0 0 0 0 0 0 0 0 0 3 0 0 0 0 0 374 0 0 0 7 4 0 0 0 0 0 0 0 0 0 0 0 0 0 0 0 0 3 21 36 55 30 0 84 41 84 69 17 18 12 10 0 0 0 27 15 7 15 24 18 84 154 90 30 47 28 0 0 0 12 0 48 132 135 57 0 45 6 15 0 0 0 0 0 0 15 0 3 0 0 0 30 8 0 0 0 0 0 0 0 0 0 0 0 0 0 1 0 3 165 0 1 0 0 0 71 0 0 0 0 0 0 0 5 0 0 0 0 0 0 0 30 0 0 0 0 0 0 0 0 6 0 0 0 0 16 0 494 522 62 11 0 0 2 0 0 0 0 4 0 0 717 0 0 0 0 0 0 0 12 41 0 0 0 0 0 0 0 0 0 0 0 503 0 2 0 0 0 0 0 0 0 0 19 0 0 7 0 0 0 5 0 0 182 25 0 0 0 0 1 0 28 105 0 0 16 6 0 0 4 96 0 0 0 0 103 0 84 22 36 10 3 11 130 0 0 0 102 0 0 0 3 40 0 3 0 0 8 0 0 10 0 48 0 0 0 8 0 189 277 0 0 0 0 0 0 0 38 0 0 0 0 0 0 0 0 0 0 0 0 0 0 0 0 0 0 0 0 0 0 0 0 0 36 0 0 0 158 0 0 0 0 0 0 0 0 0 0 0 0 0 0 755 0 0 0 0 0 0 0 0 0 0 0 0 0 0 0 0 107 0 40 0 0 0 0 6 0 0 0 0 0 0 0 0 0 0 0 0 0 0 0 0 0 0 0 0 0 0 0 0 0 0 0 0 0 8 0 0 0 0 0 0 0 0 0 0 58 35 0 0 0 12 76 0 0 46 15 0 137 150 72 30 42 0 0 0 0 0 168 8 21 10 0 0 0 0 0 0 0 0 1 0 0 4 0 0 0 22 0 0 0 2 3 0 2 0 13 0 0 0 0 17 0 0 0 0 0 0 0 0 9 2 26 0 0 3 0 0 0 0 0 0 0 0 0 0 0 0 0 0 0 0 0 0 0 0 0 0 0 0 0 0 0 0 0 0 0 0 0 0 0 0 0 0 0 0 0 0 0 0 0 0 0 0 0 0 0 0 0 0 0 0 0 0 0 0 0 0 0 0 0 0 0 0 0 0 0 0 0 0 0 0 0 0 0 0 0 0 0 0 0 6 0 9 74 0 0 6 0 81 19 40 9 66 16 0 0 0 0 165 0 0 6 0 6 6 0 80 96 21 126 10 47 0 0 0 4 0 0 0 0 0 0 11 1 0 6 0 0 0 0 0 0 0 0 0 0 0 2 0 0 0 0 0 0 0 4 0 0 0 0 0 0 0 0 0 0 0 0 0 0 0 0 13 0 0 0 0 0 313 0 0 0 0 0 0 0 0 0 0 24 0 0 0 0 0 0 0 4 0 0 81 0 0 0 0 6 0 0 0 0 0 0 0 0 0 0 0 2 0 39 24 0 0 0 0 0 0 0 0 0 0 0 0 0 0 0 0 0 0 4 0 0 0 0 0 0 0 6 0 0 0 0 0 0 6 0 0 0 36 36 0 0 0 0 0 0 0 80 72 0 1 0 7 0 0 0 0 0 36 27 21 0 0 0 0 0 0 0 0 13 20 0 3 0 0 3 0 0 0 0 0 44 1 14 0 0 0 0 0 28 0 12 0 3 0 0 9 0 0 7 0 42 0 0 10 0 0 0 2 0 160 102 0 0 0 0 0 0 0 0 0 0 0 0 0 0 0 0 0 0 0 0 0 0 0 0 0 0 0 0 0 0 1 0 0 0 0 0 0 0 0 0 0 0 0 0 0 0 0 0 0 0 0 0 0 0 0 0 0 0 0 0 0 0 0 0 0 0 0 0 0 0 0 0 0 0 0 0 0 0 0 0 0 0 0 0 0 0 0 0 54 27 0 12 0 0 0 0 6 0 0 45 0 0 0 4 2 2 8 6 7 0 0 10 0 0 0 0 3 7 0 0 77 0 40 0 21 0 0 8 0 44 12 0 0 0 0 0 0 0 45 10 12 0 0 0 98 24 10 0 3 0 0 3 0 23 0 0 0 13 0 0 4 0 0 0 0 0 0 0 3 0 0 0 0 0 0 0 0 0 0 8 0 0 0 0 0 0 0 6 0 0 0 0 60 0 0 0 0 0 0 0 0 0 0 0 0 22 24 0 0 0 0 0 0 0 0 0 0 0 0 0 0 0 0 0 435 0 0 0 0 0 0 0 0 0 0 0 0 10 10 0 0 0 0 0 0 0 0 0 0 0 0 0 0 0 0 0 0 0 0 0 0 33 0 0 0 0 0 0 56 76 0 0 0 10 147 0 0 12 0 0 21 0 0 0 0 0 0 0 0 0 35 48 60 0 0 4 0 0 0 0 0 0 0 0 0 0 0 6 0 2 0 0 2 0 11 0 2 18 0 21 0 0 0 68 11 0 16 12 0 54 12 195 0 0 0 0 0 0 0 0 0 0 0 0 0 0 0 0 0 0 0 0 0 0 0 0 0 0 0 0 0 0 0 0 0 0 0 0 0 0 0 4 0 0 0 0 0 0 0 0 0 0 0 0 0 0 0 0 0 0 0 0 0 4 0 
Printing Sanity2
Heartbeat CPU 0 instructions: 10000003 cycles: 2956677 heartbeat IPC: 3.38218 cumulative IPC: 3.38218 (Simulation time: 0 hr 0 min 24 sec) 
Heartbeat CPU 0 instructions: 20000003 cycles: 5930309 heartbeat IPC: 3.36289 cumulative IPC: 3.37251 (Simulation time: 0 hr 0 min 47 sec) 
Heartbeat CPU 0 instructions: 30000000 cycles: 8910122 heartbeat IPC: 3.35591 cumulative IPC: 3.36696 (Simulation time: 0 hr 1 min 11 sec) 
*** Reached end of trace for Core: 0 Repeating trace: traces/spec2k17/srv_37.champsimtrace.xz
Heartbeat CPU 0 instructions: 40000002 cycles: 11891392 heartbeat IPC: 3.35428 cumulative IPC: 3.36378 (Simulation time: 0 hr 1 min 35 sec) 
Heartbeat CPU 0 instructions: 50000002 cycles: 14866263 heartbeat IPC: 3.36149 cumulative IPC: 3.36332 (Simulation time: 0 hr 1 min 59 sec) 

Warmup complete CPU 0 instructions: 50000002 cycles: 14866263 (Simulation time: 0 hr 1 min 59 sec) 

Heartbeat CPU 0 instructions: 60000002 cycles: 35329452 heartbeat IPC: 0.488682 cumulative IPC: 0.488682 (Simulation time: 0 hr 2 min 41 sec) 
*** Reached end of trace for Core: 0 Repeating trace: traces/spec2k17/srv_37.champsimtrace.xz
Heartbeat CPU 0 instructions: 70000003 cycles: 55382916 heartbeat IPC: 0.498667 cumulative IPC: 0.493624 (Simulation time: 0 hr 3 min 23 sec) 
Heartbeat CPU 0 instructions: 80000000 cycles: 75488529 heartbeat IPC: 0.497373 cumulative IPC: 0.494868 (Simulation time: 0 hr 4 min 5 sec) 
Heartbeat CPU 0 instructions: 90000000 cycles: 95870269 heartbeat IPC: 0.490635 cumulative IPC: 0.493803 (Simulation time: 0 hr 4 min 46 sec) 
*** Reached end of trace for Core: 0 Repeating trace: traces/spec2k17/srv_37.champsimtrace.xz
Heartbeat CPU 0 instructions: 100000001 cycles: 115925239 heartbeat IPC: 0.49863 cumulative IPC: 0.494761 (Simulation time: 0 hr 5 min 28 sec) 
Heartbeat CPU 0 instructions: 110000000 cycles: 136002655 heartbeat IPC: 0.498072 cumulative IPC: 0.495309 (Simulation time: 0 hr 6 min 10 sec) 
Heartbeat CPU 0 instructions: 120000003 cycles: 156189218 heartbeat IPC: 0.495379 cumulative IPC: 0.495319 (Simulation time: 0 hr 6 min 52 sec) 
*** Reached end of trace for Core: 0 Repeating trace: traces/spec2k17/srv_37.champsimtrace.xz
Heartbeat CPU 0 instructions: 130000001 cycles: 176500384 heartbeat IPC: 0.49234 cumulative IPC: 0.494945 (Simulation time: 0 hr 7 min 34 sec) 
Heartbeat CPU 0 instructions: 140000001 cycles: 196449023 heartbeat IPC: 0.501287 cumulative IPC: 0.495642 (Simulation time: 0 hr 8 min 16 sec) 
Heartbeat CPU 0 instructions: 150000001 cycles: 216521672 heartbeat IPC: 0.49819 cumulative IPC: 0.495895 (Simulation time: 0 hr 8 min 58 sec) 
Heartbeat CPU 0 instructions: 160000000 cycles: 236940200 heartbeat IPC: 0.489751 cumulative IPC: 0.495331 (Simulation time: 0 hr 9 min 39 sec) 
*** Reached end of trace for Core: 0 Repeating trace: traces/spec2k17/srv_37.champsimtrace.xz
Heartbeat CPU 0 instructions: 170000003 cycles: 256949520 heartbeat IPC: 0.499767 cumulative IPC: 0.495697 (Simulation time: 0 hr 10 min 21 sec) 
Heartbeat CPU 0 instructions: 180000000 cycles: 277037247 heartbeat IPC: 0.497816 cumulative IPC: 0.49586 (Simulation time: 0 hr 11 min 3 sec) 
Heartbeat CPU 0 instructions: 190000000 cycles: 297396437 heartbeat IPC: 0.491179 cumulative IPC: 0.495522 (Simulation time: 0 hr 11 min 45 sec) 
*** Reached end of trace for Core: 0 Repeating trace: traces/spec2k17/srv_37.champsimtrace.xz
Heartbeat CPU 0 instructions: 200000001 cycles: 317425944 heartbeat IPC: 0.499263 cumulative IPC: 0.49577 (Simulation time: 0 hr 12 min 27 sec) 
Heartbeat CPU 0 instructions: 210000002 cycles: 337406246 heartbeat IPC: 0.500493 cumulative IPC: 0.496063 (Simulation time: 0 hr 13 min 9 sec) 
Heartbeat CPU 0 instructions: 220000000 cycles: 357775904 heartbeat IPC: 0.490926 cumulative IPC: 0.495757 (Simulation time: 0 hr 13 min 50 sec) 
*** Reached end of trace for Core: 0 Repeating trace: traces/spec2k17/srv_37.champsimtrace.xz
Heartbeat CPU 0 instructions: 230000000 cycles: 377838902 heartbeat IPC: 0.49843 cumulative IPC: 0.495905 (Simulation time: 0 hr 14 min 33 sec) 
Heartbeat CPU 0 instructions: 240000001 cycles: 397853143 heartbeat IPC: 0.499644 cumulative IPC: 0.496101 (Simulation time: 0 hr 15 min 15 sec) 
Heartbeat CPU 0 instructions: 250000001 cycles: 418120164 heartbeat IPC: 0.493412 cumulative IPC: 0.495965 (Simulation time: 0 hr 15 min 57 sec) 
Finished CPU 0 instructions: 200000000 cycles: 403253902 cumulative IPC: 0.495965 (Simulation time: 0 hr 15 min 57 sec) 

ChampSim completed all CPUs

Region of Interest Statistics

CPU 0 cumulative IPC: 0.495965 instructions: 200000000 cycles: 403253902
ITLB TOTAL     ACCESS:   33794343  HIT:   32261780  MISS:    1532563  HIT %:     95.465  MISS %:    4.53497   MPKI: 7.66282
ITLB LOAD TRANSLATION ACCESS:   33794343  HIT:   32261780  MISS:    1532563  HIT %:     95.465  MISS %:    4.53497   MPKI: 7.66282
ITLB PREFETCH  REQUESTED:          0  ISSUED:          0  USEFUL:          0  USELESS:          0
ITLB USEFUL LOAD PREFETCHES:          0 PREFETCH ISSUED TO LOWER LEVEL:          0  ACCURACY: -nan
ITLB TIMELY PREFETCHES:          0 LATE PREFETCHES: 0 DROPPED PREFETCHES: 0
ITLB PREFETCHES SAME FILL-ORIGIN LEVEL: 0 DIFFERENT FILL-ORIGIN LEVEL: 0
ITLB AVERAGE MISS LATENCY: 9.29815 cycles
ITLB RQ	ACCESS:   40663010	FORWARD:          0	MERGED:    6374016	TO_CACHE:   34288994

DTLB TOTAL     ACCESS:   39914503  HIT:   38381626  MISS:    1532877  HIT %:    96.1596  MISS %:     3.8404   MPKI: 7.66439
DTLB LOAD TRANSLATION ACCESS:   39914503  HIT:   38381626  MISS:    1532877  HIT %:    96.1596  MISS %:     3.8404   MPKI: 7.66439
DTLB PREFETCH  REQUESTED:          0  ISSUED:          0  USEFUL:          0  USELESS:          0
DTLB USEFUL LOAD PREFETCHES:          0 PREFETCH ISSUED TO LOWER LEVEL:          0  ACCURACY: -nan
DTLB TIMELY PREFETCHES:          0 LATE PREFETCHES: 0 DROPPED PREFETCHES: 0
DTLB PREFETCHES SAME FILL-ORIGIN LEVEL: 0 DIFFERENT FILL-ORIGIN LEVEL: 0
DTLB AVERAGE MISS LATENCY: 15.207 cycles
DTLB RQ	ACCESS:   61023242	FORWARD:          0	MERGED:   20713389	TO_CACHE:   40309853

STLB TOTAL     ACCESS:   21842076  HIT:   21760048  MISS:      82028  HIT %:    99.6244  MISS %:    0.37555   MPKI: 0.41014
STLB LOAD TRANSLATION ACCESS:    3065440  HIT:    2984596  MISS:      80844  HIT %:    97.3627  MISS %:    2.63727   MPKI: 0.40422
STLB TRANSLATION FROM L1D PREFETCHER ACCESS:   18776636  HIT:   18775452  MISS:       1184  HIT %:    99.9937  MISS %: 0.00630571   MPKI: 0.00592
STLB PREFETCH  REQUESTED:          0  ISSUED:          0  USEFUL:       1129  USELESS:         56
STLB USEFUL LOAD PREFETCHES:       1129 PREFETCH ISSUED TO LOWER LEVEL:          0  ACCURACY: inf
STLB TIMELY PREFETCHES:       1129 LATE PREFETCHES: 7 DROPPED PREFETCHES: 1089458
STLB PREFETCHES SAME FILL-ORIGIN LEVEL: 0 DIFFERENT FILL-ORIGIN LEVEL: 0
STLB AVERAGE MISS LATENCY: 122.802 cycles
STLB RQ	ACCESS:   28664969	FORWARD:          0	MERGED:    5611224	TO_CACHE:   23053745

STLB Hit, L1D data hit: 0
STLB Hit, L2C data hit: 0
STLB Hit, LLC data hit: 0
STLB Hit, LLC data miss: 0
STLB STLB hints to L2: 0
L1D TOTAL     ACCESS:   72542094  HIT:   63996089  MISS:    8546005  HIT %:    88.2192  MISS %:    11.7808   MPKI: 42.73
L1D LOAD      ACCESS:   26623333  HIT:   23447027  MISS:    3176306  HIT %:    88.0695  MISS %:    11.9305   MPKI: 15.8815
L1D RFO       ACCESS:   22569227  HIT:   18918341  MISS:    3650886  HIT %:    83.8236  MISS %:    16.1764   MPKI: 18.2544
L1D PREFETCH  ACCESS:   23349534  HIT:   21630721  MISS:    1718813  HIT %:    92.6388  MISS %:    7.36123   MPKI: 8.59407
AGUS PREFETCH L1 MISS: 0
L1D PREFETCH  REQUESTED:   52692253  ISSUED:   52687286  USEFUL:     261295  USELESS:    1457521
L1D USEFUL LOAD PREFETCHES:     261295 PREFETCH ISSUED TO LOWER LEVEL:    1750077  ACCURACY: 14.9305
L1D TIMELY PREFETCHES:     261295 LATE PREFETCHES: 21975 DROPPED PREFETCHES: 1424568
L1D PREFETCHES SAME FILL-ORIGIN LEVEL: 1750077 DIFFERENT FILL-ORIGIN LEVEL: 0
L1D AVERAGE MISS LATENCY: 793899 cycles
L1D RQ	ACCESS:   45156037	FORWARD:          0	MERGED:   17813365	TO_CACHE:   27092725
L1D WQ	ACCESS:   34134601	FORWARD:     280089	MERGED:     204084	TO_CACHE:   33930517
L1D PQ	ACCESS:   27087757	FORWARD:          0	MERGED:    1458086	TO_CACHE:   25599529

L1D UNIQUE REGIONS ACCESSED: 0
L1D REGIONS CONFLICTS: 0
L1D Cross Page Prefetch Requests: 2807185
L1D Same Page Prefetch Requests: 29786771
L1D ROI Sum of L1D PQ occupancy: 395257351
L1D PREFETCHES PUSHED FROM L2C: 0
L1I TOTAL     ACCESS:   38023426  HIT:   28947201  MISS:    9076225  HIT %:    76.1299  MISS %:    23.8701   MPKI: 45.3811
L1I LOAD      ACCESS:   38023426  HIT:   28947201  MISS:    9076225  HIT %:    76.1299  MISS %:    23.8701   MPKI: 45.3811
L1I PREFETCH  REQUESTED:          0  ISSUED:          0  USEFUL:          0  USELESS:          0
L1I USEFUL LOAD PREFETCHES:          0 PREFETCH ISSUED TO LOWER LEVEL:          0  ACCURACY: -nan
L1I TIMELY PREFETCHES:          0 LATE PREFETCHES: 0 DROPPED PREFETCHES: 0
L1I PREFETCHES SAME FILL-ORIGIN LEVEL: 0 DIFFERENT FILL-ORIGIN LEVEL: 0
L1I AVERAGE MISS LATENCY: 17.032 cycles
L1I RQ	ACCESS:   59001172	FORWARD:          0	MERGED:   18338162	TO_CACHE:   40663010

BTB TOTAL     ACCESS:   25792480  HIT:   24215901  MISS:    1576579  HIT %:    93.8874  MISS %:    6.11255   MPKI: 7.8829
BTB BRANCH_DIRECT_JUMP	ACCESS:    1657270  HIT:    1644420  MISS:      12850
BTB BRANCH_INDIRECT	ACCESS:    9945381  HIT:    9419368  MISS:     526013
BTB BRANCH_CONDITIONAL	ACCESS:    7366898  HIT:    7349104  MISS:      17794
BTB BRANCH_DIRECT_CALL	ACCESS:    2818313  HIT:    2778536  MISS:      39777
BTB BRANCH_INDIRECT_CALL	ACCESS:     593131  HIT:     481550  MISS:     111581
BTB BRANCH_RETURN	ACCESS:    3411487  HIT:    2542923  MISS:     868564
BTB BRANCH_OTHER ACCESS:          0  HIT:          0  MISS:          0

L2C TOTAL     ACCESS:   23679088  HIT:   16297786  MISS:    7381302  HIT %:    68.8278  MISS %:    31.1722   MPKI: 36.9065
L2C LOAD      ACCESS:   12229507  HIT:    9515373  MISS:    2714134  HIT %:    77.8067  MISS %:    22.1933   MPKI: 13.5707
L2C DATA LOAD MPKI: 10.5273
L2C INSTRUCTION LOAD MPKI: 3.0434
L2C RFO       ACCESS:    3641570  HIT:     119139  MISS:    3522431  HIT %:    3.27164  MISS %:    96.7284   MPKI: 17.6122
L2C PREFETCH  ACCESS:    1750071  HIT:     781724  MISS:     968347  HIT %:    44.6681  MISS %:    55.3319   MPKI: 4.84173
AGUS PREFETCH L1 MISS: 0
L2C DATA PREFETCH MPKI: 4.84173
L2C INSTRUCTION PREFETCH MPKI: 0
L2C WRITEBACK ACCESS:    4426510  HIT:    4318584  MISS:     107926  HIT %:    97.5618  MISS %:    2.43817   MPKI: 0.53963
L2C LOAD TRANSLATION ACCESS:      94055  HIT:      51561  MISS:      42494  HIT %:    54.8201  MISS %:    45.1799   MPKI: 0.21247
L2C TRANSLATION FROM L1D PREFETCHER ACCESS:    1537375  HIT:    1511405  MISS:      25970  HIT %:    98.3108  MISS %:    1.68924   MPKI: 0.12985
L2C PREFETCH  REQUESTED:          0  ISSUED:          0  USEFUL:      82889  USELESS:     912042
L2C USEFUL LOAD PREFETCHES:      82889 PREFETCH ISSUED TO LOWER LEVEL:     968347  ACCURACY: 8.55984
L2C TIMELY PREFETCHES:      82889 LATE PREFETCHES: 0 DROPPED PREFETCHES: 0
L2C PREFETCHES SAME FILL-ORIGIN LEVEL: 0 DIFFERENT FILL-ORIGIN LEVEL: 0
L2C AVERAGE MISS LATENCY: 146.91 cycles
L2C RQ	ACCESS:   17503585	FORWARD:          0	MERGED:          0	TO_CACHE:   17502507
L2C WQ	ACCESS:    4426510	FORWARD:       1083	MERGED:          0	TO_CACHE:    4426510
L2C PQ	ACCESS:    1750077	FORWARD:          0	MERGED:          0	TO_CACHE:    1750072

L2C Instructions Evicting Data 558939
L2C Translations Evicting Data 63179
L2C Data Evicting Data 5985365
L2C Instructions Evicting Instructions 44927
L2C Translations Evicting Instructions 4882
L2C Data Evicting Instructions 548503
L2C Instructions Evicting Translations 4815
L2C Translations Evicting Translations 403
L2C Data Evicting Translations 62363
L2C Dense regions hint from L2: 0
PSCL5 TOTAL     ACCESS:    1171486  HIT:    1171486  MISS:          0  HIT %:        100  MISS %:          0   MPKI: 0
PSCL5 LOAD TRANSLATION ACCESS:      80837  HIT:      80837  MISS:          0  HIT %:        100  MISS %:          0   MPKI: 0
PSCL5 TRANSLATION FROM L1D PREFETCHER ACCESS:    1090649  HIT:    1090649  MISS:          0  HIT %:        100  MISS %:          0   MPKI: 0
PSCL5 PREFETCH  REQUESTED:          0  ISSUED:          0  USEFUL:          0  USELESS:          0
PSCL5 USEFUL LOAD PREFETCHES:          0 PREFETCH ISSUED TO LOWER LEVEL:          0  ACCURACY: -nan
PSCL5 TIMELY PREFETCHES:          0 LATE PREFETCHES: 0 DROPPED PREFETCHES: 0
PSCL5 PREFETCHES SAME FILL-ORIGIN LEVEL: 0 DIFFERENT FILL-ORIGIN LEVEL: 0

PSCL4 TOTAL     ACCESS:    1150110  HIT:    1149887  MISS:        223  HIT %:    99.9806  MISS %:  0.0193894   MPKI: 0.001115
PSCL4 LOAD TRANSLATION ACCESS:      78313  HIT:      78090  MISS:        223  HIT %:    99.7152  MISS %:   0.284755   MPKI: 0.001115
PSCL4 TRANSLATION FROM L1D PREFETCHER ACCESS:    1071797  HIT:    1071797  MISS:          0  HIT %:        100  MISS %:          0   MPKI: 0
PSCL4 PREFETCH  REQUESTED:          0  ISSUED:          0  USEFUL:          0  USELESS:          0
PSCL4 USEFUL LOAD PREFETCHES:          0 PREFETCH ISSUED TO LOWER LEVEL:          0  ACCURACY: -nan
PSCL4 TIMELY PREFETCHES:          0 LATE PREFETCHES: 0 DROPPED PREFETCHES: 0
PSCL4 PREFETCHES SAME FILL-ORIGIN LEVEL: 0 DIFFERENT FILL-ORIGIN LEVEL: 0

PSCL3 TOTAL     ACCESS:    1126526  HIT:    1125230  MISS:       1296  HIT %:     99.885  MISS %:   0.115044   MPKI: 0.00648
PSCL3 LOAD TRANSLATION ACCESS:      75557  HIT:      74261  MISS:       1296  HIT %:    98.2847  MISS %:    1.71526   MPKI: 0.00648
PSCL3 TRANSLATION FROM L1D PREFETCHER ACCESS:    1050969  HIT:    1050969  MISS:          0  HIT %:        100  MISS %:          0   MPKI: 0
PSCL3 PREFETCH  REQUESTED:          0  ISSUED:          0  USEFUL:          0  USELESS:          0
PSCL3 USEFUL LOAD PREFETCHES:          0 PREFETCH ISSUED TO LOWER LEVEL:          0  ACCURACY: -nan
PSCL3 TIMELY PREFETCHES:          0 LATE PREFETCHES: 0 DROPPED PREFETCHES: 0
PSCL3 PREFETCHES SAME FILL-ORIGIN LEVEL: 0 DIFFERENT FILL-ORIGIN LEVEL: 0

PSCL2 TOTAL     ACCESS:     741727  HIT:     729854  MISS:      11873  HIT %:    98.3993  MISS %:    1.60072   MPKI: 0.059365
PSCL2 LOAD TRANSLATION ACCESS:      80999  HIT:      69126  MISS:      11873  HIT %:    85.3418  MISS %:    14.6582   MPKI: 0.059365
PSCL2 TRANSLATION FROM L1D PREFETCHER ACCESS:     660728  HIT:     660728  MISS:          0  HIT %:        100  MISS %:          0   MPKI: 0
PSCL2 PREFETCH  REQUESTED:          0  ISSUED:          0  USEFUL:          0  USELESS:          0
PSCL2 USEFUL LOAD PREFETCHES:          0 PREFETCH ISSUED TO LOWER LEVEL:          0  ACCURACY: -nan
PSCL2 TIMELY PREFETCHES:          0 LATE PREFETCHES: 0 DROPPED PREFETCHES: 0
PSCL2 PREFETCHES SAME FILL-ORIGIN LEVEL: 0 DIFFERENT FILL-ORIGIN LEVEL: 0

LLC TOTAL     ACCESS:   11346066  HIT:    4791385  MISS:    6554681  HIT %:    42.2295  MISS %:    57.7705   MPKI: 32.7734
LLC LOAD      ACCESS:    2714128  HIT:    1469189  MISS:    1244939  HIT %:    54.1312  MISS %:    45.8688   MPKI: 6.22469
LLC RFO       ACCESS:    3522374  HIT:     927989  MISS:    2594385  HIT %:    26.3456  MISS %:    73.6544   MPKI: 12.9719
LLC PREFETCH  ACCESS:     968346  HIT:     816658  MISS:     151688  HIT %:    84.3354  MISS %:    15.6646   MPKI: 0.75844
AGUS PREFETCH L1 MISS: 0
LLC WRITEBACK ACCESS:    4072754  HIT:    1544524  MISS:    2528230  HIT %:    37.9233  MISS %:    62.0767   MPKI: 12.6411
LLC LOAD TRANSLATION ACCESS:      42494  HIT:       9697  MISS:      32797  HIT %:    22.8197  MISS %:    77.1803   MPKI: 0.163985
LLC TRANSLATION FROM L1D PREFETCHER ACCESS:      25970  HIT:      23328  MISS:       2642  HIT %:    89.8267  MISS %:    10.1733   MPKI: 0.01321
LLC PREFETCH  REQUESTED:          0  ISSUED:          0  USEFUL:       1408  USELESS:     153108
LLC USEFUL LOAD PREFETCHES:       1408 PREFETCH ISSUED TO LOWER LEVEL:     151688  ACCURACY: 0.928221
LLC TIMELY PREFETCHES:       1408 LATE PREFETCHES: 0 DROPPED PREFETCHES: 0
LLC PREFETCHES SAME FILL-ORIGIN LEVEL: 0 DIFFERENT FILL-ORIGIN LEVEL: 0
LLC AVERAGE MISS LATENCY: 132.146 cycles
LLC RQ	ACCESS:    6305029	FORWARD:          0	MERGED:          0	TO_CACHE:    6304966
LLC WQ	ACCESS:    4072754	FORWARD:         64	MERGED:          0	TO_CACHE:    4072754
LLC PQ	ACCESS:     968347	FORWARD:          0	MERGED:          0	TO_CACHE:     968346

LLC Dense regions hint to LLC: 0

RAW hits: 2436858
Loads Generated: 47592898
Loads sent to L1D: 45156037
Stores Generated: 34134601
Stores sent to L1D: 34134601
Major fault: 0 Minor fault: 9332
Allocated PAGES: 9332
ucb ended
-----------------------------------------------------------------------------------------------------------------------------------------------------------------------------------------------------
Offsets elements: -1 -12750317 12750316 -9185 9187 1 -1216969 1216970 -9188 -2200619181993 2200619181995 -12750324 -5 12741140 -2200619181992 2200619166984 -4444531 4468727 -2 9186 -12750328 -2200606440596 2200606440596 12763166 3 -2200619097041 2200619060004 37036 -12848 12848 -37036 24188 12846 10382306 -10382284 -20 21 -2200619090671 2200619090687 -62973 62976 -12866 -50110 50111 38860 -38882 -8 -50105 38885 -38883 85784 2 -85886 85887 -85894 12863 -2200619121607 2200619121611 -62976 62956 -62958 62983 -62982 25920 -25919 58152 -58155 62955 -3 -2200619097037 2200619097060 -62956 62969 -62970 62961 10 6 -6 -62972 88997 -88995 50108 12864 -37055 -2200619097038 2200619097043 10382304 -2200629472974 2200619077823 -9186 -12702818 -38323 9 12750319 -9189 9190 -24198 -1192774 1216972 5 -24175 24172 -9194 -288223780680244784 -18880338 -297490 -1465996307786 1465996001225 -1465996001224 378 8 -387 409 -14 1465996611744 -304352 -306560 -1465996001199 1465996001199 306560 -1465996307450 -332 1466015485606 -1466015483813 -1489 1465996479895 -1465996480196 -4 1794 1465996603501 -1465996605295 -1465996604963 -1757 1425 -1462 1465996480200 19005407 -19004385 -1465996482646 1465996309207 -1465996307782 1465996478406 -1465996478403 -1501 1465996480926 -1465996481218 1465996512964 92327 1465996604963 -1465996606690 -30 1465996482647 -1465996480890 1465996480978 -88 19004385 -18880311 18880311 -1466015485273 -1794 -1465996481625 1730 1466015485302 -19177825 -1465996307759 -1465996307486 -292 328 1465996606690 -1465996606720 30 88 -1465996480978 1465996480890 -18880310 18880310 -1466015485274 1466015485301 -65765341 -1465949721690 1422 371 -363 1465996001216 19484386 -19484386 306561 1465996482648 -1465996480891 1465996480889 1465996481017 -1465996481349 1465996479896 -1465996481626 1466015487031 -1466015485609 1466015485610 -1466015485239 -1753 1753 1465996480907 -18 19004384 -18880309 -1466015485272 1465996482034 -1465996480240 -1466015485600 -46477564 46477564 -1465996002642 1465996002642 19484260 -1466015485311 -1727 1757 124074 -124013 -1465996480950 -1466015485301 1797 1466015483813 -1466015485302 63 1465996307414 -46018811 -1465949983835 1466015487033 -19177828 -1465996307785 1465996307786 304353 -114356 -1465996497763 1465949742813 -1465949742832 1465996583442 -1465996583071 -3094 1465996608022 -21727 -4200 -46836542 -1465949742799 -19 1465996490428 93033 -1465996583222 1465949742580 46862467 -25927 -46836540 46836539 -88929 88931 -88931 -1465996490189 -233 1465996583423 21857 -46862467 46762977 -15368 7178 -1465996497367 130 -85964 81764 46745563 90982 25925 46745560 -46745560 65742777 -18988002 -46754776 18997219 -18906240 18906238 -19177826 -1465996307749 1465996579332 -1465996579367 -1465996307415 37 -397 382 28 -410 379 1465996611760 -1465996612138 -1465996307388 1465996494140 -1465996494521 1465996583439 28682 -28337 23376 18878433 -19177823 -1465996307750 1465996307749 189997 -46485857 -1465950011926 1465950011926 46600213 -46600213 -460749 -1465949551177 1466015485609 -18873470 18873469 -19177822 19177823 -18987826 18987826 1465996612139 -304354 19177822 -18980798 -14359 14358 2021 -16381 16382 -1465996506796 219 1465996506577 -16382 -1465996490194 1465996490194 -35390573 -1465961116234 1465993408083 -11 3098735 -3098735 3098736 -3098736 22077510 -22077500 3082343 18995157 -18978777 -1465996509451 2921 1727 1466015487026 -19004378 124073 18880305 -19004291 -1465996480977 1466015485296 -1466015485296 1465949719960 -1465949720260 1465996506821 -1465996508252 1466015487027 -18980797 2022 -1465996490195 -219 1465949742836 46747578 -35374191 -1465961116003 -46747578 43665236 -1465993408072 1465949742847 43665225 -43665225 43665226 22077508 -22077498 -1465996490149 87 19004379 -18880304 18880304 -1466015485268 65765335 -18995156 -1465996491870 1465961117678 54369348 -1466015485353 1466015485352 -18995157 -65473680 65473681 -1466015485606 408 1465950011517 46492883 -1465996506577 1465996506796 1465961116003 35374191 -46747574 46763956 -46763960 -1465949742847 1465996506807 46763960 46763961 -46763961 65742735 -16380 -1465996504809 1465996490455 121684 18873468 398 1465996307386 197024 -1465996504808 -1465996611730 -409 -18873468 -1465996612131 404 -412 7 186803 -1465996494589 377 -78 -1465996482616 1466015486996 -1466015487025 1465996606720 -19004379 19004378 1465996481309 -1465996479515 -18991065 -46774271 65765337 -1466015487027 -18996155 -1032 -1465996488410 1465996307778 180627 6171 -1465996494590 1466015485608 -1465996612139 -18873469 18873470 -1466015485591 345 4961 -4962 18878432 -1466015485210 -16 1465996307404 -1465996307783 33 -35 35 375 1465996307374 386 -386 1465996494549 -1465996494163 1466015485222 -19177824 1465996307748 197023 395 -395 -377 -1465996611737 1465996494137 -1465996494539 1466015485607 400 -401 1466015485612 -1466015485227 1465996611754 18873471 -1466015485610 1466015485611 -1466015485613 407 1466015485210 -18873473 -117597 -186756 -46754950 -1465949742497 1466015485303 -65765342 -1465949719960 -301 -1429 1465949719933 -1465949720265 332 3219 1465996481221 19004386 1466015483810 -46587517 46777514 15189 -31746 25604 18978782 -1466015485607 1462 1465996479869 125094 -1465996603501 1465996479424 -1020 1465996309206 -1465996307781 1465996307782 -1465996305988 1465996305987 19177827 -19005407 17578 -31745 -46469301 65473687 -1466015485614 1466015485613 -1466015485234 1465996307408 -1465996307784 -19484388 19484391 -19122316 85161 -79876 -5293 -78035 -1465996285229 1465996297516 307730 -17806 288223780709547535 -2200629620940 2200619201325 23 -72119 96289 -9304 -14893 24198 -9306 -12687934 12687935 -2200619091945 2200606389460 14554 12687931 -1207666 1216969 -2200619181876 2200619181877 -12687937 8228516 -8228517 12697246 -14892 -2200619166984 2200619191180 -9301 9302 -12697244 -2200606493680 2200606493680 12660026 13019 -2200619060004 2200619046984 10432360 -10395151 -2200619077823 2200619077822 -37210 22 16 -12461 12464 37190 -49654 49655 38828 -38850 38851 -38859 -49649 46830 -85782 -7 85792 -85790 85790 -122973 -2200619071560 2200619071555 -49653 12460 -12446 25464 -25463 57696 -57698 -45253 -12441 -2200619034541 2200619123049 -88509 12462 37210 14 37189 -24188 -13020 -10432359 -2200619046987 -2200619040614 -9302 -12702486 14545 1192801 24170 -9305 9306 24203 -288223780680253978 -1466015485612 1465996605274 -1465996605274 1465996285257 -1465996284850 -22 -379 -314594 -1465996297519 1465996285233 12287 -12288 -1465996284922 1429 1465996605291 1465996285254 195967 -1465996480925 -3192 1465996481625 1465996514393 -1465996482617 -1466015487032 1465996286679 -1465996285231 1465996297519 -1465996297245 1466015485602 1465996482616 -1465996481222 1466015483812 -300 1465949720260 65765342 12288 -25 1465996297544 -1465996297173 1465996297173 36 -328 1465996481349 -1465996479555 1465996480196 19005406 -1465996285256 346 -12287 -1465996284958 -1465996482642 1465996482660 19004366 -123262 -1465996481701 -1466015485300 1465949523352 -1465949525078 288225246706136421 -10419615 -24168 -13 13 -2200619199352 2200619199339 -98724 18332 -18320 10519824 -10421095 -15 -80395 -2200619001462 2200614637929 4363534 -18331 10520283 -10467529 -2200619081026 2200619151175 -70149 48144 -2200619129170 2200619129170 22005 10396917 -10501488 82567 -82566 164630 -164630 80410 10421078 -2200629462410 2200619065488 -2200619108548 70 2200631412342 -12303866 12303829 38 -12303867 12303804 -1906429 1906455 -12303830 12303809 -3756581289 3744277476 12303815 -3756581290 3754674857 -10397377 12303805 -10397380 4 12303831 -1906455 -10397375 10397376 -3754674857 3754674856 -3754674856 3756581285 -1906877 1906877 -1906863 1906864 -10397379 -1906428 -2200619065484 2200619065490 -24154 24155 -24155 -80415 -3744172919 3744154599 98729 24160 -2200619106031 2200614637919 -2200614640233 2200619108343 -4468109 4468113 -3744277488 -2196874873684 -104572 82064 -164631 104572 -3744231593 3744207414 -3744253313 -2196874831059 2200631412426 -1906509 1906510 -2200631412512 2200619108632 -104568 -3744172920 3744172919 104568 -3744277491 3739809386 14865484 -14865484 14865485 -14865485 14865486 -10397385 -4468101 -10397386 3754674411 -3754674411 3744277489 -3744231592 3744231592 20 24194 -24172 -98732 122905 -24196 -288225246695739582 1465996297536 19187940 -19004383 60 19004325 -1466015485605 -27 -308 -1466015483812 -1426 1465996284886 19200355 -19188066 -46315131 -1465949982414 -1421 1465996613560 -1465996612119 18880312 -19200356 -1465996285257 1465996583573 -85808 114374 -1465996611767 1465949742461 -1465949745555 2737 -46747609 46840642 -4100 -1465996579120 1465949742799 -114857 -1465996579119 -99490 -46762977 46840740 -93131 81753 1465996497356 -9213 90979 -1465996579355 -46840610 18997218 -65742778 -116907 9216 18988003 -65742779 -203136 1465996583572 -298314 -1465996285223 1465996578990 411 1465996611728 -1465996611760 -381 1465996285241 209280 88918 -326881 -1465996285222 1465996285221 212507 -46485838 -1465950011927 1465950011927 46600212 -47060834 -1465949551305 1465996285258 326881 -114374 -1465996497765 -326882 219552 -1465996504775 16383 -1465996490196 -1465996506530 1465961134707 35470584 -1465996607920 1465996607920 19004292 -18880306 -65765336 -18978776 -2021 -1465996506821 1465996490439 -46747572 -1465949742843 1465949742624 46747572 -1465961134379 -18880305 -54350891 -1465961134462 -1465950011893 1465950011518 46492882 1465996506578 1465996506576 -1465996506807 1465961134692 -11391837 46763953 -46763953 46763954 -46763954 65742729 1465996285256 399 1465996504400 107330 412 1465996611727 -326880 209296 -1465996494553 19004380 -123986 46774271 18991066 -203160 209290 -1465996494545 1465996488410 -203155 -1465996285264 -1466015485590 28337 -4961 -1465996607177 -18873471 -1465996611740 1465996284876 -1465996285255 -1465996284847 1465996494163 -209292 1465996285220 219551 -1465996285258 -400 1466015485225 18873472 -1466015485206 1465996611737 209284 -1465996494506 -46754932 -1790 301 -305 -46885030 1465996482646 -46760956 1465996286678 -1465996285254 1465996497761 -1465996495967 1465996505032 -1465996506494 1465 1465949718468 1465996511174 -1465996480917 1465996480201 -1465996478407 -3219 1465996605295 -125094 -1425 -1465996479424 -1797 1465996285253 -1465996283460 1465996283459 32767 -15207 -16538 -46469300 65473685 -19200353 -1465996285260 1466015485614 1466015485235 -19122321 1466015485587 -19037155 -150916 -236690 -5271 241961 288223780709529729 -288223780699720884 288223780699720883 -288223780699695604 567684 288221580079926595 2200619201348 72119 87329 -15241 15240 8958 -8957 -2200619092293 2200619101249 -12750032 37838 12703238 -12741073 11533059 -8958 -2200619182227 2200619182224 -2200619182224 -12725836 12750037 -4468726 -8953 8955 -12750038 -2200606440886 2200619166728 44922 -2200619104929 2200619104928 10374416 20734 19 -20750 -70837 50103 38796 -38818 -50097 88924 -38821 85578 -85681 -2200619108744 2200619129495 -70856 70836 -70838 70863 -70862 58145 -32234 -25911 70855 -23 -70836 -70834 88923 -2200619123017 2200619084194 20748 -44943 44924 -2200619104926 2200619104931 -8954 -12703239 12712195 -12750039 12741082 12750031 -1216972 1192774 27 24176 -288223780699134316 18880338 -19491108 25280 -25278 -1465995994506 1465995994504 -1465995994096 1465996019376 -1465996019784 1466015485227 -1466015485218 -394 -1465995994507 1465996019785 -1465996019406 -617632 -1465996019785 1465995994506 617633 -617634 -1465995994479 1465996019759 -25280 25279 -1465996019781 305 1489 -125095 -1465996480200 1465996479868 -1465996478406 1021 1465996479425 31746 1465995994498 610793 -1465996604999 -1772 1465995994480 485699 -460419 -1465996021206 1465996021206 -1465995994206 1465996480977 -87 1465949718471 1465996019776 -1465996019413 -346 -126 -25279 -1465995994133 1465996479833 -460420 -1465996019759 -1447 -1465996480889 -1466015487026 -461458 462252 -462252 -1465996019776 1465949523652 46496124 19465700 -19004325 -1465996481281 308 1465995992708 -372 -19465826 -46037371 46629725 -1465995995927 1465996499240 -1465996497799 46840610 -1465996583572 372 1465996611767 -121696 1465996583460 1465996579120 -46747610 46747609 -1465996490408 1465996579339 -1465996579352 233 1465996583190 77763 -85953 -90977 18997214 -18987990 -7178 -1465996490422 18902168 -18906236 65742779 -18988003 18988002 -1466015485358 -610795 493886 -1465996488357 -1465996583573 -32 -378 1465996579372 32771 500032 -1465996494140 -612672 -1465995994470 1465995994469 503313 -46485892 -46600212 -460494 -1465949551433 -114320 -1465996497819 510304 1465996490415 -1465996506578 -35386779 35370398 -51513233 51513234 -51513234 51513235 -32534458 32534459 -32534459 32534458 1466015485597 -1466015485269 1466015485269 1465996480916 -1465996479428 1465996479515 -1465996481304 18978775 -46784540 1465996491870 1465949742846 46747568 -46747568 -1465949742626 1465961119797 2852322 -1465963972350 1465963972349 -14229492 14229492 -14229491 14229491 51513232 -51513230 32518075 18995155 -1466015485304 1466015483806 -9135 9136 -1465996490140 -54365555 35370397 -1465996490447 -1466015485354 1465949720015 -1465949719860 -1465996508251 1465950011674 46494903 -1465996506576 -231 35386780 -46763949 46763949 -46763951 46763951 46763950 -46763950 65742726 -65742726 65742725 18980798 -18995158 14359 -1465995994106 1465996504410 1465996611730 1465996494278 -1465996494356 -1700 -19004380 -1465996479427 13314 -19004294 8139 -493912 500144 -1465996494647 -46768150 46768150 -1465996489840 1466015487028 -19491096 19491097 -18997189 -1465996488401 1466015485590 -18902151 -1465996583457 1465996583802 1465996611756 -1465996612136 -1465995994094 -375 1465995994470 -1465995994505 1465995994119 -1465995994109 1466015485232 -18991061 -1465996494513 1465996612102 -107330 -1465996504407 -1465996494538 -19491106 -1466015485205 -617633 -1465995994105 -385 1465996494542 1465996612103 -1465996611803 1465995994169 -1465995994502 1465996497815 -1465996496021 1465949741035 -1465949742524 1465949720265 -1465949718471 1465949721690 46792703 1465995994497 -107480 -1465996497815 1465996506826 1465996478407 1465996481626 -1465996480201 -1465996479426 1465995992704 518466 -15153 -503314 19491107 -65473685 65473686 -1465995994508 380 1465995994126 -1465995994504 -19122299 -343529 19465831 -5276 -372324 21119 -1465996012076 1465996587440 17806 87242 -15152 -12725946 -2200606351107 2200619092206 -12703027 -38068 12741095 -1207926 -9046 -2200619182136 -12750142 12741101 -12725951 8281421 -2200614722197 44264 -2200619104269 2200629479344 -10375078 -2200619097896 2200619097918 -69821 49727 38764 -38786 -49721 38787 13920 -52742 -49720 102471 -13957 -38790 85514 -85578 -2200619108743 2200619108745 20091 -69820 69800 -69802 69827 -69826 57769 -25535 69819 69799 -69800 -2200619104268 2200619034468 49726 38791 -88515 69812 -10 -44283 -2200619104266 2200619104271 10375076 -9042 -12703028 -38077 12750149 -9045 -12741095 12750141 9051 -24174 24174 -19494628 21120 -21118 -1465995990986 1465995990984 -1465995990576 1466015485219 -19473509 19473508 -1465995990987 1465996011726 600034 -621152 -1465995990985 1465996012105 -621153 -1465995990959 1465996012079 -21120 -1465996011769 -521986 -1465995990686 -283 1465995990960 489219 -468099 -1465996013526 1465996013526 1465996480976 -86 11 -1465996481237 1465996481237 -1465996479435 1466015483809 1466015485605 1465996011796 -1465996012096 363 -46270716 46291836 1789 1465995990614 468100 1466015485273 794 -469932 46488444 -1465996013525 1465996013525 19473380 1466015485274 -1466015487031 -1395 -490240 -1465995990613 1465996480913 -469180 -46029691 -621154 -1465995990965 1465996012085 571338 -19494627 -85777 114343 1465996493165 -1465949742818 1465996579360 4100 -73562 -8190 1465996490189 -85823 65742778 -18997215 116904 -1465996605280 1466015485592 85834 -1465996583190 46248152 -1465995990984 21727 336 1465996578970 4198 1465996578973 397 1465995990589 402 -383 1465996612138 -1465995990969 1465996494521 1465996583403 -345 23721 4962 -1465995990950 1465995990949 506810 -46485869 -460366 -1465949551561 1465995990986 621153 -18987814 18987813 -19494624 1465996504809 -105309 1465961094745 -1465961095037 -1466015483807 1466015485297 -1465996506522 1465996506522 -1465996506822 1465996504800 -1465949720235 -1465996491869 1674 1465949742631 46747565 1466015487025 -1466015485294 1466015485295 18995156 -54390562 -1465961095011 1465996490414 156 1465996490195 -35411785 -11352160 46763946 -46763946 46763947 -46763947 65742722 18978777 -1465996504801 1465995990977 621154 -121689 -1465996490051 1465996490046 -1465996490043 1465996504397 -1465995990608 1465996494253 -1465996494623 1691 -1721 19004293 
Potential of Offsets elements: 886.255 28.2554 28.2554 28.2554 28.2554 897.255 28.2554 30.2554 28.2554 28.2554 28.2554 28.2554 424.255 28.2554 28.2554 42.2554 28.2554 30.2554 473.255 28.2554 28.2554 28.2554 28.2554 28.2554 601.255 28.2554 32.2554 28.2554 28.2554 28.2554 28.2554 35.2554 28.2554 28.2554 28.2554 233.255 182.255 28.2554 28.2554 28.2554 28.2554 28.2554 28.2554 28.2554 28.2554 28.2554 360.255 28.2554 28.2554 28.2554 28.2554 464.255 28.2554 28.2554 28.2554 28.2554 28.2554 28.2554 28.2554 28.2554 28.2554 28.2554 42.2554 28.2554 28.2554 28.2554 28.2554 28.2554 1017.11 28.2554 28.2554 28.2554 28.2554 30.2554 28.2554 142.255 901.255 657.255 28.2554 28.2554 28.2554 28.2554 28.2554 28.2554 28.2554 28.2554 28.2554 37.2554 28.2554 28.2554 28.2554 28.2554 417.255 28.2554 28.2554 28.2554 28.2554 36.2554 28.2554 555.255 66.2554 156.255 28.2554 28.2554 28.2554 28.2554 28.2554 28.2554 28.2554 28.2554 520.255 29.2554 28.2554 491.255 28.2554 28.2554 28.2554 28.2554 28.2554 28.2554 28.2554 46.2554 28.2554 28.2554 36.2554 28.2554 28.2554 895.478 28.2554 40.2554 28.2554 28.2554 34.2554 28.2554 28.2554 28.2554 28.2554 30.2554 28.2554 28.2554 28.2554 28.2554 28.2554 28.2554 28.2554 28.2554 28.2554 44.2554 138.255 28.2554 305.255 40.2554 130.255 28.2554 90.2554 105.255 64.2554 98.2554 73.2554 84.2554 28.2554 60.2554 77.2554 28.2554 28.2554 28.2554 58.2554 100.255 72.2554 160.255 149.255 28.2554 28.2554 193.255 28.2554 28.2554 28.2554 36.2554 36.2554 64.2554 102.255 30.2554 36.2554 28.2554 28.2554 28.2554 28.2554 28.2554 38.2554 148.255 28.2554 40.2554 38.2554 39.2554 46.2554 82.2554 268.255 38.2554 34.2554 28.2554 336.255 214.255 52.2554 28.2554 73.2554 28.2554 28.2554 60.2554 28.2554 28.2554 28.2554 28.2554 28.2554 60.2554 83.2554 145.255 43.2554 28.2554 28.2554 70.2554 73.2554 58.2554 109.255 56.2554 28.2554 28.2554 28.2554 28.2554 28.2554 28.2554 28.2554 28.2554 28.2554 28.2554 28.2554 28.2554 28.2554 28.2554 28.2554 28.2554 28.2554 28.2554 28.2554 28.2554 207.255 28.2554 28.2554 28.2554 28.2554 28.2554 28.2554 28.2554 28.2554 28.2554 28.2554 28.2554 28.2554 28.2554 28.2554 28.2554 28.2554 28.2554 28.2554 28.2554 28.2554 36.2554 28.2554 28.2554 28.2554 28.2554 28.2554 28.2554 28.2554 28.2554 28.2554 28.2554 28.2554 28.2554 28.2554 28.2554 28.2554 28.2554 28.2554 28.2554 30.2554 28.2554 28.2554 29.2554 28.2554 29.2554 28.2554 28.2554 28.2554 28.2554 28.2554 28.2554 28.2554 28.2554 28.2554 28.2554 28.2554 28.2554 28.2554 28.2554 28.2554 28.2554 28.2554 28.2554 28.2554 28.2554 28.2554 28.2554 28.2554 28.2554 28.2554 28.2554 43.2554 28.2554 284.255 28.2554 28.2554 28.2554 32.2554 28.2554 44.2554 226.255 28.2554 28.2554 28.2554 28.2554 130.255 34.2554 28.2554 28.2554 28.2554 28.2554 255.255 28.2554 28.2554 28.2554 28.2554 28.2554 28.2554 28.2554 28.2554 270.255 28.2554 33.2554 36.2554 32.2554 68.2554 83.2554 49.2554 28.2554 28.2554 58.2554 28.2554 70.2554 31.2554 60.2554 28.2554 104.255 29.2554 28.2554 106.255 28.2554 28.2554 28.2554 28.2554 28.2554 28.2554 28.2554 28.2554 28.2554 28.2554 28.2554 28.2554 28.2554 28.2554 28.2554 40.2554 28.2554 44.2554 28.2554 61.2554 28.2554 95.2554 28.2554 28.2554 28.2554 28.2554 30.2554 270.255 28.2554 28.2554 98.2554 28.2554 28.2554 28.2554 28.2554 28.2554 28.2554 28.2554 28.2554 28.2554 28.2554 28.2554 28.2554 28.2554 28.2554 28.2554 28.2554 28.2554 28.2554 28.2554 28.2554 28.2554 28.2554 28.2554 28.2554 28.2554 28.2554 28.2554 28.2554 28.2554 28.2554 28.2554 197.255 28.2554 28.2554 28.2554 30.2554 28.2554 28.2554 28.2554 28.2554 28.2554 28.2554 28.2554 28.2554 28.2554 28.2554 28.2554 28.2554 28.2554 28.2554 28.2554 28.2554 28.2554 28.2554 28.2554 28.2554 28.2554 28.2554 28.2554 31.2554 28.2554 28.2554 28.2554 28.2554 28.2554 402.255 28.2554 28.2554 28.2554 35.2554 32.2554 28.2554 28.2554 28.2554 28.2554 28.2554 28.2554 28.2554 28.2554 28.2554 28.2554 28.2554 28.2554 28.2554 28.2554 28.2554 28.2554 31.2554 49.2554 64.2554 83.2554 58.2554 28.2554 112.255 69.2554 112.255 97.2554 45.2554 46.2554 40.2554 38.2554 28.2554 28.2554 28.2554 55.2554 43.2554 35.2554 43.2554 52.2554 46.2554 112.255 182.255 118.255 58.2554 75.2554 56.2554 28.2554 28.2554 28.2554 40.2554 28.2554 76.2554 160.255 163.255 85.2554 28.2554 73.2554 34.2554 43.2554 28.2554 28.2554 28.2554 28.2554 28.2554 28.2554 43.2554 28.2554 31.2554 28.2554 28.2554 28.2554 58.2554 36.2554 28.2554 28.2554 28.2554 28.2554 28.2554 28.2554 28.2554 28.2554 28.2554 28.2554 28.2554 28.2554 28.2554 29.2554 28.2554 31.2554 193.255 28.2554 29.2554 28.2554 28.2554 28.2554 99.2554 28.2554 28.2554 28.2554 28.2554 28.2554 28.2554 28.2554 33.2554 28.2554 28.2554 28.2554 28.2554 28.2554 28.2554 28.2554 58.2554 28.2554 28.2554 28.2554 28.2554 28.2554 28.2554 28.2554 28.2554 34.2554 28.2554 28.2554 28.2554 28.2554 44.2554 28.2554 522.255 550.255 90.2554 39.2554 28.2554 28.2554 30.2554 28.2554 28.2554 28.2554 28.2554 32.2554 28.2554 28.2554 745.255 28.2554 28.2554 28.2554 28.2554 28.2554 28.2554 28.2554 40.2554 69.2554 28.2554 28.2554 28.2554 28.2554 28.2554 28.2554 28.2554 28.2554 28.2554 28.2554 28.2554 531.255 28.2554 30.2554 28.2554 28.2554 28.2554 28.2554 28.2554 28.2554 28.2554 28.2554 47.2554 28.2554 28.2554 35.2554 28.2554 28.2554 28.2554 33.2554 28.2554 28.2554 210.255 53.2554 28.2554 28.2554 28.2554 28.2554 29.2554 28.2554 56.2554 133.255 28.2554 28.2554 44.2554 34.2554 28.2554 28.2554 32.2554 124.255 28.2554 28.2554 28.2554 28.2554 131.255 28.2554 112.255 50.2554 64.2554 38.2554 31.2554 39.2554 158.255 28.2554 28.2554 28.2554 130.255 28.2554 28.2554 28.2554 31.2554 68.2554 28.2554 31.2554 28.2554 28.2554 36.2554 28.2554 28.2554 38.2554 28.2554 76.2554 28.2554 28.2554 28.2554 36.2554 28.2554 217.255 305.255 28.2554 28.2554 28.2554 28.2554 28.2554 28.2554 28.2554 66.2554 28.2554 28.2554 28.2554 28.2554 28.2554 28.2554 28.2554 28.2554 28.2554 28.2554 28.2554 28.2554 28.2554 28.2554 28.2554 28.2554 28.2554 28.2554 28.2554 28.2554 28.2554 28.2554 28.2554 28.2554 28.2554 64.2554 28.2554 28.2554 28.2554 186.255 28.2554 28.2554 28.2554 28.2554 28.2554 28.2554 28.2554 28.2554 28.2554 28.2554 28.2554 28.2554 28.2554 28.2554 783.255 28.2554 28.2554 28.2554 28.2554 28.2554 28.2554 28.2554 28.2554 28.2554 28.2554 28.2554 28.2554 28.2554 28.2554 28.2554 28.2554 135.255 28.2554 68.2554 28.2554 28.2554 28.2554 28.2554 34.2554 28.2554 28.2554 28.2554 28.2554 28.2554 28.2554 28.2554 28.2554 28.2554 28.2554 28.2554 28.2554 28.2554 28.2554 28.2554 28.2554 28.2554 28.2554 28.2554 28.2554 28.2554 28.2554 28.2554 28.2554 28.2554 28.2554 28.2554 28.2554 28.2554 36.2554 28.2554 28.2554 28.2554 28.2554 28.2554 28.2554 28.2554 28.2554 28.2554 28.2554 86.2554 63.2554 28.2554 28.2554 28.2554 40.2554 104.255 28.2554 28.2554 74.2554 43.2554 28.2554 165.255 178.255 100.255 58.2554 70.2554 28.2554 28.2554 28.2554 28.2554 28.2554 196.255 36.2554 49.2554 38.2554 28.2554 28.2554 28.2554 28.2554 28.2554 28.2554 28.2554 28.2554 29.2554 28.2554 28.2554 32.2554 28.2554 28.2554 28.2554 50.2554 28.2554 28.2554 28.2554 30.2554 31.2554 28.2554 30.2554 28.2554 41.2554 28.2554 28.2554 28.2554 28.2554 45.2554 28.2554 28.2554 28.2554 28.2554 28.2554 28.2554 28.2554 28.2554 37.2554 30.2554 54.2554 28.2554 28.2554 31.2554 28.2554 28.2554 28.2554 28.2554 28.2554 28.2554 28.2554 28.2554 28.2554 28.2554 28.2554 28.2554 28.2554 28.2554 28.2554 28.2554 28.2554 28.2554 28.2554 28.2554 28.2554 28.2554 28.2554 28.2554 28.2554 28.2554 28.2554 28.2554 28.2554 28.2554 28.2554 28.2554 28.2554 28.2554 28.2554 28.2554 28.2554 28.2554 28.2554 28.2554 28.2554 28.2554 28.2554 28.2554 28.2554 28.2554 28.2554 28.2554 28.2554 28.2554 28.2554 28.2554 28.2554 28.2554 28.2554 28.2554 28.2554 28.2554 28.2554 28.2554 28.2554 28.2554 28.2554 28.2554 28.2554 28.2554 28.2554 28.2554 28.2554 28.2554 28.2554 28.2554 28.2554 28.2554 28.2554 28.2554 28.2554 28.2554 28.2554 28.2554 28.2554 28.2554 28.2554 28.2554 28.2554 34.2554 28.2554 37.2554 102.255 28.2554 28.2554 34.2554 28.2554 109.255 47.2554 68.2554 37.2554 94.2554 44.2554 28.2554 28.2554 28.2554 28.2554 193.255 28.2554 28.2554 34.2554 28.2554 34.2554 34.2554 28.2554 108.255 124.255 49.2554 154.255 38.2554 75.2554 28.2554 28.2554 28.2554 32.2554 28.2554 28.2554 28.2554 28.2554 28.2554 28.2554 39.2554 29.2554 28.2554 34.2554 28.2554 28.2554 28.2554 28.2554 28.2554 28.2554 28.2554 28.2554 28.2554 28.2554 28.2554 30.2554 28.2554 28.2554 28.2554 28.2554 28.2554 28.2554 28.2554 32.2554 28.2554 28.2554 28.2554 28.2554 28.2554 28.2554 28.2554 28.2554 28.2554 28.2554 28.2554 28.2554 28.2554 28.2554 28.2554 28.2554 41.2554 28.2554 28.2554 28.2554 28.2554 28.2554 341.255 28.2554 28.2554 28.2554 28.2554 28.2554 28.2554 28.2554 28.2554 28.2554 28.2554 52.2554 28.2554 28.2554 28.2554 28.2554 28.2554 28.2554 28.2554 32.2554 28.2554 28.2554 109.255 28.2554 28.2554 28.2554 28.2554 34.2554 28.2554 28.2554 28.2554 28.2554 28.2554 28.2554 28.2554 28.2554 28.2554 28.2554 28.2554 30.2554 28.2554 67.2554 52.2554 28.2554 28.2554 28.2554 28.2554 28.2554 28.2554 28.2554 28.2554 28.2554 28.2554 28.2554 28.2554 28.2554 28.2554 28.2554 28.2554 28.2554 28.2554 32.2554 28.2554 28.2554 28.2554 28.2554 28.2554 28.2554 28.2554 34.2554 28.2554 28.2554 28.2554 28.2554 28.2554 28.2554 34.2554 28.2554 28.2554 28.2554 64.2554 64.2554 28.2554 28.2554 28.2554 28.2554 28.2554 28.2554 28.2554 108.255 100.255 28.2554 29.2554 28.2554 35.2554 28.2554 28.2554 28.2554 28.2554 28.2554 64.2554 55.2554 49.2554 28.2554 28.2554 28.2554 28.2554 28.2554 28.2554 28.2554 28.2554 41.2554 48.2554 28.2554 31.2554 28.2554 28.2554 31.2554 28.2554 28.2554 28.2554 28.2554 28.2554 72.2554 29.2554 42.2554 28.2554 28.2554 28.2554 28.2554 28.2554 56.2554 28.2554 40.2554 28.2554 31.2554 28.2554 28.2554 37.2554 28.2554 28.2554 35.2554 28.2554 70.2554 28.2554 28.2554 38.2554 28.2554 28.2554 28.2554 30.2554 28.2554 188.255 130.255 28.2554 28.2554 28.2554 28.2554 28.2554 28.2554 28.2554 28.2554 28.2554 28.2554 28.2554 28.2554 28.2554 28.2554 28.2554 28.2554 28.2554 28.2554 28.2554 28.2554 28.2554 28.2554 28.2554 28.2554 28.2554 28.2554 28.2554 28.2554 28.2554 28.2554 29.2554 28.2554 28.2554 28.2554 28.2554 28.2554 28.2554 28.2554 28.2554 28.2554 28.2554 28.2554 28.2554 28.2554 28.2554 28.2554 28.2554 28.2554 28.2554 28.2554 28.2554 28.2554 28.2554 28.2554 28.2554 28.2554 28.2554 28.2554 28.2554 28.2554 28.2554 28.2554 28.2554 28.2554 28.2554 28.2554 28.2554 28.2554 28.2554 28.2554 28.2554 28.2554 28.2554 28.2554 28.2554 28.2554 28.2554 28.2554 28.2554 28.2554 28.2554 28.2554 28.2554 28.2554 28.2554 28.2554 28.2554 28.2554 82.2554 55.2554 28.2554 40.2554 28.2554 28.2554 28.2554 28.2554 34.2554 28.2554 28.2554 73.2554 28.2554 28.2554 28.2554 32.2554 30.2554 30.2554 36.2554 34.2554 35.2554 28.2554 28.2554 38.2554 28.2554 28.2554 28.2554 28.2554 31.2554 35.2554 28.2554 28.2554 105.255 28.2554 68.2554 28.2554 49.2554 28.2554 28.2554 36.2554 28.2554 72.2554 40.2554 28.2554 28.2554 28.2554 28.2554 28.2554 28.2554 28.2554 73.2554 38.2554 40.2554 28.2554 28.2554 28.2554 126.255 52.2554 38.2554 28.2554 31.2554 28.2554 28.2554 31.2554 28.2554 51.2554 28.2554 28.2554 28.2554 41.2554 28.2554 28.2554 32.2554 28.2554 28.2554 28.2554 28.2554 28.2554 28.2554 28.2554 31.2554 28.2554 28.2554 28.2554 28.2554 28.2554 28.2554 28.2554 28.2554 28.2554 28.2554 36.2554 28.2554 28.2554 28.2554 28.2554 28.2554 28.2554 28.2554 34.2554 28.2554 28.2554 28.2554 28.2554 88.2554 28.2554 28.2554 28.2554 28.2554 28.2554 28.2554 28.2554 28.2554 28.2554 28.2554 28.2554 28.2554 50.2554 52.2554 28.2554 28.2554 28.2554 28.2554 28.2554 28.2554 28.2554 28.2554 28.2554 28.2554 28.2554 28.2554 28.2554 28.2554 28.2554 28.2554 28.2554 463.255 28.2554 28.2554 28.2554 28.2554 28.2554 28.2554 28.2554 28.2554 28.2554 28.2554 28.2554 28.2554 38.2554 38.2554 28.2554 28.2554 28.2554 28.2554 28.2554 28.2554 28.2554 28.2554 28.2554 28.2554 28.2554 28.2554 28.2554 28.2554 28.2554 28.2554 28.2554 28.2554 28.2554 28.2554 28.2554 28.2554 61.2554 28.2554 28.2554 28.2554 28.2554 28.2554 28.2554 84.2554 104.255 28.2554 28.2554 28.2554 38.2554 175.255 28.2554 28.2554 40.2554 28.2554 28.2554 49.2554 28.2554 28.2554 28.2554 28.2554 28.2554 28.2554 28.2554 28.2554 28.2554 63.2554 76.2554 88.2554 28.2554 28.2554 32.2554 28.2554 28.2554 28.2554 28.2554 28.2554 28.2554 28.2554 28.2554 28.2554 28.2554 28.2554 34.2554 28.2554 30.2554 28.2554 28.2554 30.2554 28.2554 39.2554 28.2554 30.2554 46.2554 28.2554 49.2554 28.2554 28.2554 28.2554 96.2554 39.2554 28.2554 44.2554 40.2554 28.2554 82.2554 40.2554 223.255 28.2554 28.2554 28.2554 28.2554 28.2554 28.2554 28.2554 28.2554 28.2554 28.2554 28.2554 28.2554 28.2554 28.2554 28.2554 28.2554 28.2554 28.2554 28.2554 28.2554 28.2554 28.2554 28.2554 28.2554 28.2554 28.2554 28.2554 28.2554 28.2554 28.2554 28.2554 28.2554 28.2554 28.2554 28.2554 28.2554 28.2554 28.2554 28.2554 32.2554 28.2554 28.2554 28.2554 28.2554 28.2554 28.2554 28.2554 28.2554 28.2554 28.2554 28.2554 28.2554 28.2554 28.2554 28.2554 28.2554 28.2554 28.2554 28.2554 28.2554 28.2554 32.2554 28.2554 
rewards of Offsets elements: 858 0 0 0 0 869 0 2 0 0 0 0 396 0 0 14 0 2 445 0 0 0 0 0 573 0 4 0 0 0 0 7 0 0 0 205 154 0 0 0 0 0 0 0 0 0 332 0 0 0 0 436 0 0 0 0 0 0 0 0 0 0 14 0 0 0 0 0 1017 0 0 0 0 2 0 114 873 629 0 0 0 0 0 0 0 0 0 9 0 0 0 0 389 0 0 0 0 8 0 527 38 128 0 0 0 0 0 0 0 0 492 1 0 463 0 0 0 0 0 0 0 18 0 0 8 0 0 893 0 12 0 0 6 0 0 0 0 2 0 0 0 0 0 0 0 0 0 16 110 0 277 12 102 0 62 77 36 70 45 56 0 32 49 0 0 0 30 72 44 132 121 0 0 165 0 0 0 8 8 36 74 2 8 0 0 0 0 0 10 120 0 12 10 11 18 54 240 10 6 0 308 186 24 0 45 0 0 32 0 0 0 0 0 32 55 117 15 0 0 42 45 30 81 28 0 0 0 0 0 0 0 0 0 0 0 0 0 0 0 0 0 0 0 0 179 0 0 0 0 0 0 0 0 0 0 0 0 0 0 0 0 0 0 0 0 8 0 0 0 0 0 0 0 0 0 0 0 0 0 0 0 0 0 0 2 0 0 1 0 1 0 0 0 0 0 0 0 0 0 0 0 0 0 0 0 0 0 0 0 0 0 0 0 0 0 0 15 0 256 0 0 0 4 0 16 198 0 0 0 0 102 6 0 0 0 0 227 0 0 0 0 0 0 0 0 242 0 5 8 4 40 55 21 0 0 30 0 42 3 32 0 76 1 0 78 0 0 0 0 0 0 0 0 0 0 0 0 0 0 0 12 0 16 0 33 0 67 0 0 0 0 2 242 0 0 70 0 0 0 0 0 0 0 0 0 0 0 0 0 0 0 0 0 0 0 0 0 0 0 0 0 0 0 0 0 0 0 169 0 0 0 2 0 0 0 0 0 0 0 0 0 0 0 0 0 0 0 0 0 0 0 0 0 0 0 3 0 0 0 0 0 374 0 0 0 7 4 0 0 0 0 0 0 0 0 0 0 0 0 0 0 0 0 3 21 36 55 30 0 84 41 84 69 17 18 12 10 0 0 0 27 15 7 15 24 18 84 154 90 30 47 28 0 0 0 12 0 48 132 135 57 0 45 6 15 0 0 0 0 0 0 15 0 3 0 0 0 30 8 0 0 0 0 0 0 0 0 0 0 0 0 0 1 0 3 165 0 1 0 0 0 71 0 0 0 0 0 0 0 5 0 0 0 0 0 0 0 30 0 0 0 0 0 0 0 0 6 0 0 0 0 16 0 494 522 62 11 0 0 2 0 0 0 0 4 0 0 717 0 0 0 0 0 0 0 12 41 0 0 0 0 0 0 0 0 0 0 0 503 0 2 0 0 0 0 0 0 0 0 19 0 0 7 0 0 0 5 0 0 182 25 0 0 0 0 1 0 28 105 0 0 16 6 0 0 4 96 0 0 0 0 103 0 84 22 36 10 3 11 130 0 0 0 102 0 0 0 3 40 0 3 0 0 8 0 0 10 0 48 0 0 0 8 0 189 277 0 0 0 0 0 0 0 38 0 0 0 0 0 0 0 0 0 0 0 0 0 0 0 0 0 0 0 0 0 0 0 0 0 36 0 0 0 158 0 0 0 0 0 0 0 0 0 0 0 0 0 0 755 0 0 0 0 0 0 0 0 0 0 0 0 0 0 0 0 107 0 40 0 0 0 0 6 0 0 0 0 0 0 0 0 0 0 0 0 0 0 0 0 0 0 0 0 0 0 0 0 0 0 0 0 0 8 0 0 0 0 0 0 0 0 0 0 58 35 0 0 0 12 76 0 0 46 15 0 137 150 72 30 42 0 0 0 0 0 168 8 21 10 0 0 0 0 0 0 0 0 1 0 0 4 0 0 0 22 0 0 0 2 3 0 2 0 13 0 0 0 0 17 0 0 0 0 0 0 0 0 9 2 26 0 0 3 0 0 0 0 0 0 0 0 0 0 0 0 0 0 0 0 0 0 0 0 0 0 0 0 0 0 0 0 0 0 0 0 0 0 0 0 0 0 0 0 0 0 0 0 0 0 0 0 0 0 0 0 0 0 0 0 0 0 0 0 0 0 0 0 0 0 0 0 0 0 0 0 0 0 0 0 0 0 0 0 0 0 0 0 0 6 0 9 74 0 0 6 0 81 19 40 9 66 16 0 0 0 0 165 0 0 6 0 6 6 0 80 96 21 126 10 47 0 0 0 4 0 0 0 0 0 0 11 1 0 6 0 0 0 0 0 0 0 0 0 0 0 2 0 0 0 0 0 0 0 4 0 0 0 0 0 0 0 0 0 0 0 0 0 0 0 0 13 0 0 0 0 0 313 0 0 0 0 0 0 0 0 0 0 24 0 0 0 0 0 0 0 4 0 0 81 0 0 0 0 6 0 0 0 0 0 0 0 0 0 0 0 2 0 39 24 0 0 0 0 0 0 0 0 0 0 0 0 0 0 0 0 0 0 4 0 0 0 0 0 0 0 6 0 0 0 0 0 0 6 0 0 0 36 36 0 0 0 0 0 0 0 80 72 0 1 0 7 0 0 0 0 0 36 27 21 0 0 0 0 0 0 0 0 13 20 0 3 0 0 3 0 0 0 0 0 44 1 14 0 0 0 0 0 28 0 12 0 3 0 0 9 0 0 7 0 42 0 0 10 0 0 0 2 0 160 102 0 0 0 0 0 0 0 0 0 0 0 0 0 0 0 0 0 0 0 0 0 0 0 0 0 0 0 0 0 0 1 0 0 0 0 0 0 0 0 0 0 0 0 0 0 0 0 0 0 0 0 0 0 0 0 0 0 0 0 0 0 0 0 0 0 0 0 0 0 0 0 0 0 0 0 0 0 0 0 0 0 0 0 0 0 0 0 0 54 27 0 12 0 0 0 0 6 0 0 45 0 0 0 4 2 2 8 6 7 0 0 10 0 0 0 0 3 7 0 0 77 0 40 0 21 0 0 8 0 44 12 0 0 0 0 0 0 0 45 10 12 0 0 0 98 24 10 0 3 0 0 3 0 23 0 0 0 13 0 0 4 0 0 0 0 0 0 0 3 0 0 0 0 0 0 0 0 0 0 8 0 0 0 0 0 0 0 6 0 0 0 0 60 0 0 0 0 0 0 0 0 0 0 0 0 22 24 0 0 0 0 0 0 0 0 0 0 0 0 0 0 0 0 0 435 0 0 0 0 0 0 0 0 0 0 0 0 10 10 0 0 0 0 0 0 0 0 0 0 0 0 0 0 0 0 0 0 0 0 0 0 33 0 0 0 0 0 0 56 76 0 0 0 10 147 0 0 12 0 0 21 0 0 0 0 0 0 0 0 0 35 48 60 0 0 4 0 0 0 0 0 0 0 0 0 0 0 6 0 2 0 0 2 0 11 0 2 18 0 21 0 0 0 68 11 0 16 12 0 54 12 195 0 0 0 0 0 0 0 0 0 0 0 0 0 0 0 0 0 0 0 0 0 0 0 0 0 0 0 0 0 0 0 0 0 0 0 0 0 0 0 4 0 0 0 0 0 0 0 0 0 0 0 0 0 0 0 0 0 0 0 0 0 4 0 Printing Sanity3
offset_index value1615
offset list size1615
reward size1615
potential size1615
-----------------------------------------------------------------------------------------------------------------------------------------------------------------------------------------------------

DRAM Statistics
 CHANNEL 0
 RQ ROW_BUFFER_HIT:    1867609  ROW_BUFFER_MISS:    2158492
 DBUS_CONGESTED:       2271
 WQ ROW_BUFFER_HIT:     551008  ROW_BUFFER_MISS:    2126779  FULL:      55430

 AVG_CONGESTED_CYCLE: 3
 All warmup complete: 2
Channel 0 Bank busy for read cycles: 0
Channel 0 Bank busy for write cycles: 0
Channel 0
Rank 0
0banks busy for read cycles: 170159459
0banks busy for write cycles: 264280
1banks busy for read cycles: 33686330
1banks busy for write cycles: 35066761
2banks busy for read cycles: 18423701
2banks busy for write cycles: 15656687
3banks busy for read cycles: 18387038
3banks busy for write cycles: 8196806
4banks busy for read cycles: 9910496
4banks busy for write cycles: 5511641
5banks busy for read cycles: 6499894
5banks busy for write cycles: 4335577
6banks busy for read cycles: 11368732
6banks busy for write cycles: 4072104
7banks busy for read cycles: 5077071
7banks busy for write cycles: 6331905
8banks busy for read cycles: 15258385
8banks busy for write cycles: 35047036

CPU 0 Branch Prediction Accuracy: 99.9446% MPKI: 0.08483 Average ROB Occupancy at Mispredict: 123.05
Branch types
NOT_BRANCH: 169381026 84.6905%
BRANCH_DIRECT_JUMP: 1657270 0.828635%
BRANCH_INDIRECT: 9945381 4.97269%
BRANCH_CONDITIONAL: 12193388 6.09669%
BRANCH_DIRECT_CALL: 2818313 1.40916%
BRANCH_INDIRECT_CALL: 593131 0.296565%
BRANCH_RETURN: 3411487 1.70574%
BRANCH_OTHER: 0 0%

DRAM PAGES: 1048576
Allocated PAGES: 9332
