
*** ChampSim Multicore Out-of-Order Simulator ***

Warmup Instructions: 50000000
Simulation Instructions: 200000000
Number of CPUs: 1
LLC sets: 2048
LLC ways: 16
Off-chip DRAM Size: 4096 MB Channels: 1 Width: 64-bit Data Rate: 6400 MT/s
CPU 0 runs traces/spec2k17/client_006.champsimtrace.xz
.xz
BTB has LRU replacement policy
ITLB has LRU replacement policy
DTLB has LRU replacement policy
STLB has LRU replacement policy
L1I has LRU replacement policy
L1D has LRU replacement policy
Initialize SRRIP state for L2C
Initialize DRRIP state for LLC
Heartbeat CPU 0 instructions: 10000000 cycles: 3270765 heartbeat IPC: 3.05739 cumulative IPC: 3.05739 (Simulation time: 0 hr 0 min 48 sec) 
Heartbeat CPU 0 instructions: 20000002 cycles: 6465701 heartbeat IPC: 3.12995 cumulative IPC: 3.09325 (Simulation time: 0 hr 1 min 34 sec) 
Heartbeat CPU 0 instructions: 30000000 cycles: 9248741 heartbeat IPC: 3.59319 cumulative IPC: 3.24368 (Simulation time: 0 hr 2 min 10 sec) 
Heartbeat CPU 0 instructions: 40000001 cycles: 12129829 heartbeat IPC: 3.47091 cumulative IPC: 3.29766 (Simulation time: 0 hr 2 min 50 sec) 
Heartbeat CPU 0 instructions: 50000001 cycles: 15294632 heartbeat IPC: 3.15975 cumulative IPC: 3.26912 (Simulation time: 0 hr 3 min 33 sec) 

Warmup complete CPU 0 instructions: 50000001 cycles: 15294632 (Simulation time: 0 hr 3 min 33 sec) 

Offsets elements: 
Potential of Offsets elements: 
rewards of Offsets elements: 
Printing Sanity1
offset list size1926
Offsets elements: 
Potential of Offsets elements: 
rewards of Offsets elements: 190 234 0 2347 0 0 0 140 0 239 0 1163 0 258 0 0 0 0 0 0 0 0 0 0 0 0 0 0 0 0 0 0 0 2196 0 0 0 0 0 0 0 0 0 0 0 0 0 0 0 0 0 0 0 0 0 0 0 0 0 0 0 0 0 0 0 0 0 2759 0 0 1874 0 0 0 0 0 0 0 0 0 0 0 0 0 0 0 0 0 0 0 0 0 0 0 0 0 103 0 0 0 0 0 0 0 0 0 0 0 0 0 0 0 0 0 0 0 0 0 0 0 0 0 0 426 0 0 0 0 0 304 0 0 0 0 0 0 0 0 0 0 0 0 0 0 0 0 0 0 0 0 0 0 0 0 0 0 1052 0 0 0 0 1150 0 0 0 0 0 0 0 0 0 0 0 0 0 0 0 0 0 451 0 0 0 0 0 0 0 0 0 0 0 0 0 0 0 542 0 0 0 0 0 0 0 0 0 622 0 0 1070 0 0 0 0 0 0 0 0 0 0 0 0 0 0 0 0 0 0 0 0 0 0 599 0 0 0 0 0 0 0 0 251 0 0 0 0 0 0 0 0 0 0 0 0 0 0 0 0 461 0 0 0 0 0 586 0 0 0 0 0 0 0 0 0 0 0 0 0 0 0 0 0 0 0 0 0 0 0 864 0 0 0 0 0 0 0 0 0 0 401 0 0 0 0 0 0 0 0 0 0 0 0 0 0 489 0 0 0 0 0 0 0 0 0 0 0 0 0 0 0 0 0 529 0 0 0 0 0 0 0 0 0 183 0 0 252 0 0 0 0 0 0 0 0 0 0 0 0 0 0 0 0 0 0 0 0 0 0 0 0 0 0 0 263 0 0 0 0 0 0 0 0 307 0 0 0 0 0 0 0 0 0 0 0 0 0 1 15 0 0 0 0 0 0 0 0 0 0 399 0 0 0 0 0 0 0 0 0 0 0 0 0 0 0 295 0 0 0 0 0 0 0 0 0 12 0 0 0 0 0 0 0 0 0 0 0 0 0 0 0 0 0 134 0 0 0 0 0 0 0 0 0 0 58 0 0 0 0 0 0 0 0 0 0 0 0 0 0 125 0 0 31 0 0 0 0 0 0 0 0 0 0 0 0 0 0 0 0 53 0 0 0 0 0 0 145 0 0 0 0 0 0 0 0 0 0 0 0 0 0 0 0 0 39 0 0 0 0 0 0 0 0 94 0 0 0 0 0 0 0 0 0 0 0 0 0 0 0 62 0 0 0 0 0 0 0 0 0 0 0 0 0 0 0 0 0 0 0 96 0 0 0 0 0 0 0 13 0 0 0 0 0 0 0 0 0 0 0 0 0 0 0 57 0 0 105 0 0 0 0 0 0 0 0 0 0 0 0 0 0 0 0 0 0 0 0 0 0 0 17 16 0 0 0 0 0 0 0 0 0 0 0 0 0 0 0 0 0 0 0 0 0 0 46 0 0 0 0 0 0 2 0 0 0 0 0 0 0 0 0 0 0 0 0 0 0 0 0 0 0 0 5 0 0 0 0 0 0 0 0 0 0 0 0 0 0 0 0 0 0 0 0 0 21 0 0 0 25 0 0 0 0 0 0 0 78 0 0 0 0 0 0 0 0 0 0 0 0 0 0 0 0 0 73 0 0 77 0 0 0 0 0 0 0 0 0 0 0 0 0 0 0 0 0 0 0 0 0 0 0 0 32 0 0 0 0 0 0 80 0 0 0 0 0 0 0 0 0 0 0 0 0 0 0 0 0 1 0 0 0 0 0 0 9 0 0 0 0 0 0 0 0 0 0 0 0 0 0 0 0 0 0 17 0 0 26 0 0 0 0 0 0 0 0 0 0 0 0 0 0 0 0 0 0 0 0 0 96 0 0 0 0 0 0 0 0 20 0 0 0 0 0 0 0 0 0 0 0 0 0 0 0 0 0 0 0 9 0 0 0 92 0 0 0 0 0 0 0 0 0 0 0 0 0 0 0 0 0 0 0 0 0 0 0 0 0 0 0 0 0 0 0 0 0 0 0 0 0 0 0 0 0 0 0 0 0 0 0 0 0 2 0 0 0 0 0 0 0 79 0 0 0 0 0 0 0 0 0 0 0 0 0 0 0 0 0 0 0 0 46 0 0 0 0 0 0 0 0 0 0 0 0 0 0 0 0 0 0 0 0 0 0 325 0 0 474 0 0 0 0 0 0 0 0 0 0 0 0 0 0 0 0 0 0 0 0 0 0 0 0 0 46 0 0 1 0 0 0 0 0 0 0 0 0 0 0 0 0 0 0 0 0 0 0 0 0 0 0 0 0 4 0 0 0 0 0 0 0 0 0 0 0 0 0 0 0 0 0 0 0 22 0 0 0 0 0 0 0 0 0 0 0 12 0 0 0 0 0 0 0 0 0 0 0 0 0 0 0 0 0 0 0 0 0 0 0 0 0 2 0 0 0 0 0 0 0 0 0 0 0 0 0 0 0 0 0 0 0 0 0 0 0 0 0 0 0 0 6 0 0 0 0 0 56 0 0 0 0 0 0 0 0 0 0 0 0 0 0 0 0 0 0 0 0 0 0 0 0 0 0 0 0 0 0 0 0 0 0 0 0 0 0 0 0 0 0 0 0 2 0 0 0 0 0 0 0 0 0 0 0 0 0 0 0 0 0 0 0 0 0 0 0 0 8 0 0 0 0 0 0 0 0 0 0 0 0 0 0 0 0 0 0 0 0 0 0 0 0 0 3 0 0 0 0 0 0 0 0 0 0 0 0 0 0 0 0 0 0 0 0 0 0 0 5 0 0 0 1 0 0 0 0 0 0 0 0 0 0 0 0 0 0 0 0 0 0 0 0 0 0 0 0 0 0 28 0 0 0 0 0 0 0 0 0 0 0 0 0 0 0 1 0 0 0 0 0 0 0 0 0 0 0 0 0 0 0 0 0 0 0 0 0 0 0 0 0 0 0 0 0 0 0 0 0 0 0 0 0 0 0 0 0 0 0 0 0 0 0 0 0 0 0 0 0 0 0 0 0 0 0 0 0 0 0 325 280 0 0 0 0 0 0 0 0 0 0 0 0 0 0 0 0 0 0 0 0 0 4 93 243 230 240 338 41 114 64 0 0 0 0 0 0 0 0 0 0 0 0 0 0 0 0 0 0 0 0 0 0 0 0 0 0 0 0 0 1 0 0 0 0 0 0 0 0 0 0 0 0 0 0 0 0 0 0 0 0 0 0 0 0 0 0 0 0 0 0 0 0 0 0 0 0 0 0 0 0 0 0 0 0 0 0 0 0 0 0 0 0 0 0 0 0 0 0 0 0 0 0 0 0 16 0 0 0 0 0 0 0 0 0 0 0 0 0 0 0 0 0 0 0 0 0 0 0 0 0 0 0 0 0 0 0 0 0 0 0 0 0 0 0 0 0 0 0 0 0 0 0 0 0 0 0 0 0 0 0 0 0 0 0 0 0 0 0 0 0 0 0 0 0 0 0 0 0 0 0 0 0 0 0 0 0 0 0 0 0 0 0 0 14 68 158 21 0 0 0 0 0 0 0 0 0 0 0 0 0 0 0 0 0 0 0 0 0 0 0 0 0 0 0 0 0 0 0 0 0 0 0 0 176 0 0 0 0 0 0 0 0 0 0 0 0 0 0 0 0 0 0 0 0 0 0 0 0 0 0 0 0 0 0 0 0 0 0 0 1 0 0 0 0 0 0 0 0 0 0 5 481 0 0 0 0 0 0 0 10 12 0 0 46 0 0 210 0 0 0 0 0 0 0 0 0 0 0 0 0 0 0 0 0 0 0 0 0 0 0 0 0 0 0 0 0 0 0 0 0 0 0 0 0 0 0 0 0 0 0 0 0 0 0 0 0 0 0 0 0 0 0 0 0 0 0 0 0 0 0 0 0 0 0 0 0 0 0 0 0 0 0 0 0 0 0 0 0 0 0 0 0 0 0 0 0 0 0 0 0 0 0 0 0 0 0 0 0 0 0 0 0 0 0 0 0 0 0 0 0 0 0 0 0 0 0 0 0 0 0 0 0 0 0 0 0 0 0 0 0 0 0 0 0 0 0 0 0 0 0 0 0 0 0 0 0 0 2 0 0 0 0 0 0 0 0 0 0 0 0 0 0 0 0 0 0 0 0 0 0 0 0 0 0 0 26 48 1 4 0 0 0 3 12 4 0 0 0 0 0 0 0 0 0 0 0 0 2 0 0 0 0 0 0 0 0 0 0 0 0 0 0 319 0 0 0 0 0 0 0 0 0 0 0 0 0 0 0 0 0 0 0 0 0 0 0 0 0 0 0 0 0 0 0 0 0 0 0 0 0 0 0 0 0 0 0 37 0 0 0 0 
Printing Sanity2
Heartbeat CPU 0 instructions: 60000000 cycles: 34329936 heartbeat IPC: 0.52534 cumulative IPC: 0.52534 (Simulation time: 0 hr 4 min 34 sec) 
Heartbeat CPU 0 instructions: 70000000 cycles: 59184608 heartbeat IPC: 0.402339 cumulative IPC: 0.455685 (Simulation time: 0 hr 5 min 36 sec) 
Heartbeat CPU 0 instructions: 80000000 cycles: 77660641 heartbeat IPC: 0.541242 cumulative IPC: 0.481031 (Simulation time: 0 hr 6 min 35 sec) 
Heartbeat CPU 0 instructions: 90000000 cycles: 99172986 heartbeat IPC: 0.464849 cumulative IPC: 0.476881 (Simulation time: 0 hr 7 min 32 sec) 
Heartbeat CPU 0 instructions: 100000002 cycles: 117826579 heartbeat IPC: 0.53609 cumulative IPC: 0.487653 (Simulation time: 0 hr 8 min 31 sec) 
*** Reached end of trace for Core: 0 Repeating trace: traces/spec2k17/client_006.champsimtrace.xz
Heartbeat CPU 0 instructions: 110000000 cycles: 135111605 heartbeat IPC: 0.578535 cumulative IPC: 0.500764 (Simulation time: 0 hr 9 min 37 sec) 
Heartbeat CPU 0 instructions: 120000003 cycles: 152480649 heartbeat IPC: 0.575737 cumulative IPC: 0.510256 (Simulation time: 0 hr 10 min 46 sec) 
Heartbeat CPU 0 instructions: 130000002 cycles: 170059854 heartbeat IPC: 0.568854 cumulative IPC: 0.516912 (Simulation time: 0 hr 11 min 45 sec) 
Heartbeat CPU 0 instructions: 140000002 cycles: 186964403 heartbeat IPC: 0.591557 cumulative IPC: 0.524262 (Simulation time: 0 hr 12 min 43 sec) 
Heartbeat CPU 0 instructions: 150000001 cycles: 208306566 heartbeat IPC: 0.468556 cumulative IPC: 0.518103 (Simulation time: 0 hr 13 min 52 sec) 
Heartbeat CPU 0 instructions: 160000000 cycles: 226046998 heartbeat IPC: 0.563684 cumulative IPC: 0.52194 (Simulation time: 0 hr 14 min 52 sec) 
Heartbeat CPU 0 instructions: 170000000 cycles: 251478823 heartbeat IPC: 0.393208 cumulative IPC: 0.508078 (Simulation time: 0 hr 15 min 57 sec) 
Heartbeat CPU 0 instructions: 180000003 cycles: 270313212 heartbeat IPC: 0.530944 cumulative IPC: 0.509767 (Simulation time: 0 hr 16 min 57 sec) 
Heartbeat CPU 0 instructions: 190000000 cycles: 291404244 heartbeat IPC: 0.474135 cumulative IPC: 0.507045 (Simulation time: 0 hr 17 min 56 sec) 
Heartbeat CPU 0 instructions: 200000000 cycles: 309961426 heartbeat IPC: 0.538875 cumulative IPC: 0.50905 (Simulation time: 0 hr 18 min 52 sec) 
*** Reached end of trace for Core: 0 Repeating trace: traces/spec2k17/client_006.champsimtrace.xz
Heartbeat CPU 0 instructions: 210000003 cycles: 327407476 heartbeat IPC: 0.573196 cumulative IPC: 0.512635 (Simulation time: 0 hr 19 min 57 sec) 
Heartbeat CPU 0 instructions: 220000000 cycles: 344863615 heartbeat IPC: 0.572864 cumulative IPC: 0.515825 (Simulation time: 0 hr 21 min 7 sec) 
Heartbeat CPU 0 instructions: 230000000 cycles: 361547818 heartbeat IPC: 0.599369 cumulative IPC: 0.519851 (Simulation time: 0 hr 22 min 5 sec) 
Heartbeat CPU 0 instructions: 240000002 cycles: 379035401 heartbeat IPC: 0.571834 cumulative IPC: 0.52235 (Simulation time: 0 hr 23 min 2 sec) 
Heartbeat CPU 0 instructions: 250000000 cycles: 399609254 heartbeat IPC: 0.486054 cumulative IPC: 0.520407 (Simulation time: 0 hr 24 min 15 sec) 
Finished CPU 0 instructions: 200000003 cycles: 384314630 cumulative IPC: 0.520407 (Simulation time: 0 hr 24 min 15 sec) 

ChampSim completed all CPUs

Region of Interest Statistics

CPU 0 cumulative IPC: 0.520407 instructions: 200000003 cycles: 384314630
ITLB TOTAL     ACCESS:   31692498  HIT:   31197452  MISS:     495046  HIT %:     98.438  MISS %:    1.56203   MPKI: 2.47523
ITLB LOAD TRANSLATION ACCESS:   31692498  HIT:   31197452  MISS:     495046  HIT %:     98.438  MISS %:    1.56203   MPKI: 2.47523
ITLB PREFETCH  REQUESTED:          0  ISSUED:          0  USEFUL:          0  USELESS:          0
ITLB USEFUL LOAD PREFETCHES:          0 PREFETCH ISSUED TO LOWER LEVEL:          0  ACCURACY: -nan
ITLB TIMELY PREFETCHES:          0 LATE PREFETCHES: 0 DROPPED PREFETCHES: 0
ITLB PREFETCHES SAME FILL-ORIGIN LEVEL: 0 DIFFERENT FILL-ORIGIN LEVEL: 0
ITLB AVERAGE MISS LATENCY: 11.0866 cycles
ITLB RQ	ACCESS:   37643796	FORWARD:          0	MERGED:    5896457	TO_CACHE:   31747339

DTLB TOTAL     ACCESS:   40893702  HIT:   39647220  MISS:    1246482  HIT %:    96.9519  MISS %:     3.0481   MPKI: 6.23241
DTLB LOAD TRANSLATION ACCESS:   40893702  HIT:   39647220  MISS:    1246482  HIT %:    96.9519  MISS %:     3.0481   MPKI: 6.23241
DTLB PREFETCH  REQUESTED:          0  ISSUED:          0  USEFUL:          0  USELESS:          0
DTLB USEFUL LOAD PREFETCHES:          0 PREFETCH ISSUED TO LOWER LEVEL:          0  ACCURACY: -nan
DTLB TIMELY PREFETCHES:          0 LATE PREFETCHES: 0 DROPPED PREFETCHES: 0
DTLB PREFETCHES SAME FILL-ORIGIN LEVEL: 0 DIFFERENT FILL-ORIGIN LEVEL: 0
DTLB AVERAGE MISS LATENCY: 14.9775 cycles
DTLB RQ	ACCESS:   50579376	FORWARD:          0	MERGED:    9620220	TO_CACHE:   40959156

STLB TOTAL     ACCESS:    1816153  HIT:    1725249  MISS:      90904  HIT %:    94.9947  MISS %:    5.00531   MPKI: 0.45452
STLB LOAD TRANSLATION ACCESS:    1741528  HIT:    1650624  MISS:      90904  HIT %:    94.7802  MISS %:    5.21978   MPKI: 0.45452
STLB TRANSLATION FROM L1D PREFETCHER ACCESS:      74625  HIT:      74625  MISS:          0  HIT %:        100  MISS %:          0   MPKI: 0
STLB PREFETCH  REQUESTED:          0  ISSUED:          0  USEFUL:          0  USELESS:          0
STLB USEFUL LOAD PREFETCHES:          0 PREFETCH ISSUED TO LOWER LEVEL:          0  ACCURACY: -nan
STLB TIMELY PREFETCHES:          0 LATE PREFETCHES: 0 DROPPED PREFETCHES: 0
STLB PREFETCHES SAME FILL-ORIGIN LEVEL: 0 DIFFERENT FILL-ORIGIN LEVEL: 0
STLB AVERAGE MISS LATENCY: 93.1243 cycles
STLB RQ	ACCESS:    1831388	FORWARD:          0	MERGED:      15235	TO_CACHE:    1816153

STLB Hit, L1D data hit: 0
STLB Hit, L2C data hit: 0
STLB Hit, LLC data hit: 0
STLB Hit, LLC data miss: 0
STLB STLB hints to L2: 0
L1D TOTAL     ACCESS:   49864807  HIT:   47173241  MISS:    2691566  HIT %:    94.6023  MISS %:    5.39773   MPKI: 13.4578
L1D LOAD      ACCESS:   33562034  HIT:   31135496  MISS:    2426538  HIT %:      92.77  MISS %:    7.23001   MPKI: 12.1327
L1D RFO       ACCESS:   16214833  HIT:   15950271  MISS:     264562  HIT %:    98.3684  MISS %:     1.6316   MPKI: 1.32281
L1D PREFETCH  ACCESS:      87940  HIT:      87474  MISS:        466  HIT %:    99.4701  MISS %:   0.529907   MPKI: 0.00233
AGUS PREFETCH L1 MISS: 0
L1D PREFETCH  REQUESTED:     182492  ISSUED:     182492  USEFUL:        144  USELESS:        322
L1D USEFUL LOAD PREFETCHES:        144 PREFETCH ISSUED TO LOWER LEVEL:        466  ACCURACY: 30.9013
L1D TIMELY PREFETCHES:        144 LATE PREFETCHES: 0 DROPPED PREFETCHES: 0
L1D PREFETCHES SAME FILL-ORIGIN LEVEL: 466 DIFFERENT FILL-ORIGIN LEVEL: 0
L1D AVERAGE MISS LATENCY: 84.0799 cycles
L1D RQ	ACCESS:   49361227	FORWARD:          0	MERGED:   15330205	TO_CACHE:   33821205
L1D WQ	ACCESS:   17096511	FORWARD:     209817	MERGED:     338340	TO_CACHE:   16758171
L1D PQ	ACCESS:      92632	FORWARD:          0	MERGED:       2772	TO_CACHE:      89860

L1D UNIQUE REGIONS ACCESSED: 0
L1D REGIONS CONFLICTS: 0
L1D Cross Page Prefetch Requests: 787
L1D Same Page Prefetch Requests: 91845
L1D ROI Sum of L1D PQ occupancy: 1132085
L1D PREFETCHES PUSHED FROM L2C: 0
L1I TOTAL     ACCESS:   36774234  HIT:   34326414  MISS:    2447820  HIT %:    93.3437  MISS %:    6.65635   MPKI: 12.2391
L1I LOAD      ACCESS:   36774234  HIT:   34326414  MISS:    2447820  HIT %:    93.3437  MISS %:    6.65635   MPKI: 12.2391
L1I PREFETCH  REQUESTED:          0  ISSUED:          0  USEFUL:          0  USELESS:          0
L1I USEFUL LOAD PREFETCHES:          0 PREFETCH ISSUED TO LOWER LEVEL:          0  ACCURACY: -nan
L1I TIMELY PREFETCHES:          0 LATE PREFETCHES: 0 DROPPED PREFETCHES: 0
L1I PREFETCHES SAME FILL-ORIGIN LEVEL: 0 DIFFERENT FILL-ORIGIN LEVEL: 0
L1I AVERAGE MISS LATENCY: 19.805 cycles
L1I RQ	ACCESS:   57398825	FORWARD:          0	MERGED:   19755029	TO_CACHE:   37643796

BTB TOTAL     ACCESS:   25851423  HIT:   24123555  MISS:    1727868  HIT %:    93.3162  MISS %:    6.68384   MPKI: 8.63934
BTB BRANCH_DIRECT_JUMP	ACCESS:    1806110  HIT:    1783873  MISS:      22237
BTB BRANCH_INDIRECT	ACCESS:    7197239  HIT:    6432275  MISS:     764964
BTB BRANCH_CONDITIONAL	ACCESS:   11207262  HIT:   11165232  MISS:      42030
BTB BRANCH_DIRECT_CALL	ACCESS:    1904338  HIT:    1877545  MISS:      26793
BTB BRANCH_INDIRECT_CALL	ACCESS:     912580  HIT:     722486  MISS:     190094
BTB BRANCH_RETURN	ACCESS:    2823894  HIT:    2142144  MISS:     681750
BTB BRANCH_OTHER ACCESS:          0  HIT:          0  MISS:          0

L2C TOTAL     ACCESS:    6050688  HIT:    4322234  MISS:    1728454  HIT %:    71.4338  MISS %:    28.5662   MPKI: 8.64227
L2C LOAD      ACCESS:    4874263  HIT:    3392375  MISS:    1481888  HIT %:    69.5977  MISS %:    30.4023   MPKI: 7.40944
L2C DATA LOAD MPKI: 6.77515
L2C INSTRUCTION LOAD MPKI: 0.63429
L2C RFO       ACCESS:     264555  HIT:      80317  MISS:     184238  HIT %:    30.3593  MISS %:    69.6407   MPKI: 0.92119
L2C PREFETCH  ACCESS:        466  HIT:        389  MISS:         77  HIT %:    83.4764  MISS %:    16.5236   MPKI: 0.000385
AGUS PREFETCH L1 MISS: 0
L2C DATA PREFETCH MPKI: 0.000385
L2C INSTRUCTION PREFETCH MPKI: 0
L2C WRITEBACK ACCESS:     810207  HIT:     795227  MISS:      14980  HIT %:    98.1511  MISS %:    1.84891   MPKI: 0.0749
L2C LOAD TRANSLATION ACCESS:     101197  HIT:      53926  MISS:      47271  HIT %:    53.2881  MISS %:    46.7119   MPKI: 0.236355
L2C PREFETCH  REQUESTED:          0  ISSUED:          0  USEFUL:         24  USELESS:         53
L2C USEFUL LOAD PREFETCHES:         24 PREFETCH ISSUED TO LOWER LEVEL:         77  ACCURACY: 31.1688
L2C TIMELY PREFETCHES:         24 LATE PREFETCHES: 0 DROPPED PREFETCHES: 0
L2C PREFETCHES SAME FILL-ORIGIN LEVEL: 0 DIFFERENT FILL-ORIGIN LEVEL: 0
L2C AVERAGE MISS LATENCY: 118.951 cycles
L2C RQ	ACCESS:    5240116	FORWARD:          0	MERGED:          0	TO_CACHE:    5240015
L2C WQ	ACCESS:     810207	FORWARD:        101	MERGED:          0	TO_CACHE:     810207
L2C PQ	ACCESS:        466	FORWARD:          0	MERGED:          0	TO_CACHE:        466

L2C Instructions Evicting Data 106899
L2C Translations Evicting Data 41310
L2C Data Evicting Data 1391633
L2C Instructions Evicting Instructions 15599
L2C Translations Evicting Instructions 4558
L2C Data Evicting Instructions 106353
L2C Instructions Evicting Translations 4360
L2C Translations Evicting Translations 1403
L2C Data Evicting Translations 41359
L2C Dense regions hint from L2: 0
PSCL5 TOTAL     ACCESS:      90904  HIT:      90904  MISS:          0  HIT %:        100  MISS %:          0   MPKI: 0
PSCL5 LOAD TRANSLATION ACCESS:      90904  HIT:      90904  MISS:          0  HIT %:        100  MISS %:          0   MPKI: 0
PSCL5 PREFETCH  REQUESTED:          0  ISSUED:          0  USEFUL:          0  USELESS:          0
PSCL5 USEFUL LOAD PREFETCHES:          0 PREFETCH ISSUED TO LOWER LEVEL:          0  ACCURACY: -nan
PSCL5 TIMELY PREFETCHES:          0 LATE PREFETCHES: 0 DROPPED PREFETCHES: 0
PSCL5 PREFETCHES SAME FILL-ORIGIN LEVEL: 0 DIFFERENT FILL-ORIGIN LEVEL: 0

PSCL4 TOTAL     ACCESS:      83943  HIT:      83833  MISS:        110  HIT %:     99.869  MISS %:   0.131041   MPKI: 0.00055
PSCL4 LOAD TRANSLATION ACCESS:      83943  HIT:      83833  MISS:        110  HIT %:     99.869  MISS %:   0.131041   MPKI: 0.00055
PSCL4 PREFETCH  REQUESTED:          0  ISSUED:          0  USEFUL:          0  USELESS:          0
PSCL4 USEFUL LOAD PREFETCHES:          0 PREFETCH ISSUED TO LOWER LEVEL:          0  ACCURACY: -nan
PSCL4 TIMELY PREFETCHES:          0 LATE PREFETCHES: 0 DROPPED PREFETCHES: 0
PSCL4 PREFETCHES SAME FILL-ORIGIN LEVEL: 0 DIFFERENT FILL-ORIGIN LEVEL: 0

PSCL3 TOTAL     ACCESS:      90725  HIT:      90436  MISS:        289  HIT %:    99.6815  MISS %:   0.318545   MPKI: 0.001445
PSCL3 LOAD TRANSLATION ACCESS:      90725  HIT:      90436  MISS:        289  HIT %:    99.6815  MISS %:   0.318545   MPKI: 0.001445
PSCL3 PREFETCH  REQUESTED:          0  ISSUED:          0  USEFUL:          0  USELESS:          0
PSCL3 USEFUL LOAD PREFETCHES:          0 PREFETCH ISSUED TO LOWER LEVEL:          0  ACCURACY: -nan
PSCL3 TIMELY PREFETCHES:          0 LATE PREFETCHES: 0 DROPPED PREFETCHES: 0
PSCL3 PREFETCHES SAME FILL-ORIGIN LEVEL: 0 DIFFERENT FILL-ORIGIN LEVEL: 0

PSCL2 TOTAL     ACCESS:      90904  HIT:      80987  MISS:       9917  HIT %:    89.0907  MISS %:    10.9093   MPKI: 0.049585
PSCL2 LOAD TRANSLATION ACCESS:      90904  HIT:      80987  MISS:       9917  HIT %:    89.0907  MISS %:    10.9093   MPKI: 0.049585
PSCL2 PREFETCH  REQUESTED:          0  ISSUED:          0  USEFUL:          0  USELESS:          0
PSCL2 USEFUL LOAD PREFETCHES:          0 PREFETCH ISSUED TO LOWER LEVEL:          0  ACCURACY: -nan
PSCL2 TIMELY PREFETCHES:          0 LATE PREFETCHES: 0 DROPPED PREFETCHES: 0
PSCL2 PREFETCHES SAME FILL-ORIGIN LEVEL: 0 DIFFERENT FILL-ORIGIN LEVEL: 0

LLC TOTAL     ACCESS:    2204739  HIT:    1254676  MISS:     950063  HIT %:    56.9081  MISS %:    43.0919   MPKI: 4.75031
LLC LOAD      ACCESS:    1481888  HIT:     746980  MISS:     734908  HIT %:    50.4073  MISS %:    49.5927   MPKI: 3.67454
LLC RFO       ACCESS:     184238  HIT:      22658  MISS:     161580  HIT %:    12.2982  MISS %:    87.7018   MPKI: 0.8079
LLC PREFETCH  ACCESS:         77  HIT:         18  MISS:         59  HIT %:    23.3766  MISS %:    76.6234   MPKI: 0.000295
AGUS PREFETCH L1 MISS: 0
LLC WRITEBACK ACCESS:     491265  HIT:     462261  MISS:      29004  HIT %:    94.0961  MISS %:    5.90394   MPKI: 0.14502
LLC LOAD TRANSLATION ACCESS:      47271  HIT:      22759  MISS:      24512  HIT %:    48.1458  MISS %:    51.8542   MPKI: 0.12256
LLC PREFETCH  REQUESTED:          0  ISSUED:          0  USEFUL:          0  USELESS:         59
LLC USEFUL LOAD PREFETCHES:          0 PREFETCH ISSUED TO LOWER LEVEL:         59  ACCURACY: 0
LLC TIMELY PREFETCHES:          0 LATE PREFETCHES: 0 DROPPED PREFETCHES: 0
LLC PREFETCHES SAME FILL-ORIGIN LEVEL: 0 DIFFERENT FILL-ORIGIN LEVEL: 0
LLC AVERAGE MISS LATENCY: 162.26 cycles
LLC RQ	ACCESS:    1713397	FORWARD:          0	MERGED:          0	TO_CACHE:    1713397
LLC WQ	ACCESS:     491265	FORWARD:          0	MERGED:          0	TO_CACHE:     491265
LLC PQ	ACCESS:         77	FORWARD:          0	MERGED:          0	TO_CACHE:         77

LLC Dense regions hint to LLC: 0

RAW hits: 2671252
Loads Generated: 52032481
Loads sent to L1D: 49361227
Stores Generated: 17096501
Stores sent to L1D: 17096511
Major fault: 0 Minor fault: 10830
Allocated PAGES: 10830
ucb ended
-----------------------------------------------------------------------------------------------------------------------------------------------------------------------------------------------------
Offsets elements: 10475674 -10475673 -4397958609262 -1 -3505727 12088181 -12088180 4397962114989 -10475672 -4397962114990 3505726 3 4397958609261 -4397962114989 4397972590661 -10475668 -4397950040574 4397959528752 -4397968097446 8582452 -8582452 4397968097447 -4397968403424 4397968403424 -4397959513426 4397950025242 10475672 -4397969390912 4397958915244 -4397958915243 -3199749 3505724 -16409508 1 7827055 254497 48 -3042051 2787506 -254497 -79936 334433 -334432 79935 254498 -79933 334431 -79932 334430 -79931 334429 334428 -254498 -334428 334427 -79929 -79928 334426 -79927 334424 -334424 334423 -79925 -79924 334422 -79923 334420 2 -254499 254499 -2 -79922 334421 -79921 -79920 334419 -334416 79919 -334415 79918 -79919 334418 -79917 334416 -79916 334415 334413 -334414 334412 -79914 -79913 -79912 334409 254500 -334411 334408 -3 -334407 79910 -79910 334410 -79909 -79908 334405 -254500 334404 -79907 334407 -79906 334406 -79905 -79904 334401 -334401 79904 -79902 334403 -79901 334398 -334400 334397 -79899 334400 -4 254501 -334395 79898 -79897 334394 4 -254501 -334397 334393 -79895 334396 -79894 334395 -79893 334390 -334393 334389 -79892 -79891 334392 -79890 334391 117940 -117936 338569 -84072 -254502 84073 -84068 84069 -84074 338572 5 254502 84071 -84076 338574 -5 338575 -84073 338576 -84079 84075 -84080 338577 -84075 338578 338579 -84077 338580 -84083 84078 338581 338582 338583 -6 84087 -338585 254503 338586 84090 -84084 -254503 84085 -84091 338589 -84086 338590 -84087 338591 -84094 6 84089 -84095 338592 -84089 338593 -84090 338594 338595 -84098 7 -254504 254504 -7 338596 338597 -84093 338598 -84101 84095 -84102 338600 -84103 735053 -480557 480551 -480558 735056 -480552 735057 -480553 735058 -480561 254505 480554 -480562 -8 480563 -735060 735060 -480555 735061 -480556 735062 -480565 8 -254505 480558 -480566 735063 735064 -480559 735065 -480560 735066 -480569 480561 735067 735068 -480571 735069 735071 -9 254506 480575 -735072 735073 -480576 9 -254506 480568 -480577 735075 735076 -480570 735077 -480580 480572 -480581 735078 -480572 735079 -480573 735080 -480574 -3042117 3042126 -3042125 3042116 -2787619 3042125 -2787618 -10 -3042114 2787617 254507 -2787615 3042123 -3042121 3042111 -2787613 3042120 3042110 10 -254507 -3042119 3042109 -2787611 3042118 -2787610 3042117 -2787609 3042106 -3042115 3042105 -2787607 3042114 -2787606 -11 -2787605 3042113 -3042101 2787604 -2787604 3042112 -2787603 -2787602 -2787601 2787601 254508 -3042097 2787600 -2787599 3042107 -2787598 3042095 11 -254508 -3042105 3042094 -2787596 3042104 -2787595 3042103 -2787594 3042091 12 -254509 254509 -12 -2787592 3042102 3042101 -2787591 3042100 -2787590 3042087 -3042098 3042086 -2787589 3042098 -8425918 8425906 -7965662 8220171 -8081927 7827430 -7697200 7951709 -7805096 181399 7623685 -7261297 7515806 -7387856 7387868 254510 -13 -7277433 7022936 -6916632 6836743 334399 -79889 -79888 334385 13 -254510 334384 -79886 -79885 -79884 334381 334380 -79883 -79882 -79881 -79880 334377 -334390 79880 14 79879 -334375 -254511 -79877 334374 254511 -334387 334373 -79875 334386 -14 -79874 -79873 334370 -334383 334369 -79871 334382 -79870 -79869 334366 -334379 334365 -79868 334379 -79867 -15 254512 -79866 334363 -334362 -254512 -334377 334362 -334361 79864 15 -334374 79862 -334360 334359 -334373 334358 -79860 334372 -79859 334371 -79858 334355 -334369 334354 -79856 334368 -79855 -16 -79854 334367 -334350 79853 -79853 -79852 -79851 334364 -79850 334347 16 -254513 254513 -334363 -79849 334346 -79848 334344 -334359 334343 -79845 -79844 334357 -79843 334340 17 -254514 254514 -17 -79841 334356 -79840 372438 -117941 -84104 338601 338602 -84088 338603 338604 -84107 338605 338606 -84109 338607 -18 254515 84112 -338609 338610 338611 -84114 18 -254515 84097 -84115 338613 338614 -84099 338615 -84118 84101 -84119 338616 338617 338618 338619 -84122 84104 338620 -19 254516 84124 -338622 -254516 84126 338625 338626 -84129 19 84111 -84130 338628 -84112 338629 -84113 338630 -84133 84134 -338631 735081 -480564 -20 254517 -480585 20 -254517 480566 -480586 735084 -480567 735085 -480568 735086 -735086 735087 735088 735089 735090 -480593 480573 735091 735092 -480575 735093 -21 480597 -735094 735095 735096 -480578 735097 -480600 21 -254518 254518 480580 -480601 735099 735100 -480582 735101 -480604 480605 -735102 735103 735104 735105 -480608 22 -254519 254519 -22 735106 735107 -480588 735108 -480589 -2787588 3042085 -3042106 3042084 -2787586 -2787585 -2787584 3042081 -3042102 3042080 -2787583 -2787582 -2787581 -2787580 3042077 -3042099 2787580 254520 -23 23 -2787578 3042099 3042074 -2787577 -254520 -3042096 3042073 -2787575 -2787574 -2787573 3042070 -3042092 3042069 -2787571 -2787570 3042090 -2787569 3042066 -3042088 3042065 -2787568 3042089 -24 254521 -3042064 2787567 -2787566 -2787565 3042062 24 -254521 -3042086 -3042061 2787564 -3042059 2787563 -2787562 3042059 -3042082 3042058 -2787560 -2787559 -2787558 3042055 -3042078 3042054 -2787556 254522 -8425832 8425807 -25 -7965594 8220091 -8081801 8081826 -254522 -7951601 7697104 -7550520 7805042 -7623585 7623560 -7261202 7515724 -7387798 7387823 -7277310 7022813 -6916538 7171035 -79839 334335 25 334334 -79836 -79835 -26 -79834 -334330 79833 -79832 -79831 -79830 334327 26 -254523 254523 -334352 334326 -79829 334352 -79828 334351 -79827 334350 -79826 334323 -334349 -79825 334348 -79824 334321 27 -254524 -79823 -27 -79821 -79820 -79819 334316 254524 -334342 334315 -79817 334341 -79816 -79815 334312 -334338 334311 -79814 334338 -79813 334337 -79812 334336 -79811 334308 254525 -334336 -28 -334307 79810 -79809 -334305 79808 -254525 28 -334332 -79806 334331 -79805 334330 -79804 334301 -334328 334300 -79802 -79801 -79800 334297 -334324 334296 -79799 334325 -29 254526 -334295 79798 -79797 -79796 334293 29 -254526 -334322 -79795 -79794 334320 -79793 334290 -334290 79791 -79792 334318 -79790 372439 -117942 84106 -84135 338633 338634 -30 254527 -84138 30 -254527 84109 -84139 338637 -84110 338638 -84111 338639 -84142 84113 -84143 338640 338641 338642 338643 -84146 84146 -338643 338645 -84117 338646 -31 84150 -338647 338648 -84120 338649 -84121 338650 -84153 31 -254528 254528 84123 -84154 338652 -84124 338653 -84125 338654 -84157 84127 -84158 338655 -84127 338656 -84128 338657 338658 -84161 32 84129 -338658 254529 -32 338660 338661 -84164 -254529 84133 -84165 338663 -84134 -480579 735109 735110 -480613 480614 -735111 735112 -480583 735113 -480584 735114 -480617 254530 480584 -33 480618 -735115 735116 735117 -480587 -480620 33 -254530 480588 -480621 735119 735120 -480590 735121 -480624 480592 -480625 735123 735124 -480594 735125 -480628 480596 -480629 735126 -480595 -34 254531 480630 -735127 735128 -480597 735129 -480632 34 -254531 480598 735130 -480599 735131 735132 -480635 480602 -480636 735134 -480637 735135 -3522691 3042053 3042052 -2787554 -2787553 -35 254532 3042049 35 -254532 -3042083 3042048 -2787550 3042082 -2787549 -2787548 3042045 -3042079 3042044 -2787547 3042079 -2787546 3042078 -2787545 -2787544 3042041 -3042076 -2787543 3042075 -3042039 2787542 36 -254533 -2787541 -36 -3042037 2787540 3042072 -2787538 3042071 -2787537 3042034 254533 -3042069 3042033 -2787535 3042068 -2787534 3042067 -2787533 3042030 -3042065 3042029 -2787532 -2787531 3042064 -2787530 3042063 -2787529 3042026 37 -254534 254534 -37 -2787528 -2787527 3042061 -3042023 2787526 -2787525 3042060 -3042058 3042021 -8425746 8425709 -7965526 8220060 -8081675 8081712 -7951504 7697007 -7550453 7804987 -7623472 7623435 -7261107 7515641 -7133243 7387740 38 -7277224 7022689 -254535 -6916444 6836655 334286 -79788 334285 -334284 334322 -79787 334284 -79786 334283 -79785 334282 -79784 334281 254535 -38 -334319 79784 -79782 334280 -79781 334278 -334277 -79779 334276 -79778 334275 39 -254536 334274 -334273 -79775 334272 -79774 334271 -79773 334270 -334269 -79772 334269 -79771 334268 -79770 334267 -79769 334266 -334266 79769 254536 -334304 334265 -79767 334263 40 -254537 -79766 -334262 334302 -79764 334261 -79763 334260 -79762 334259 -334258 334298 -79760 334257 -79759 334256 -79758 334255 -334254 334294 -79757 334254 -79756 334253 -79755 334252 -79754 334251 41 -254538 -334251 334292 -334291 79753 -41 -79751 334249 -334247 334288 -79749 334246 -79748 334245 -79747 334244 -334243 -79745 334242 -79744 334241 -79743 334240 -334239 -254539 42 -79742 334238 -79740 334237 -79739 334236 117942 -117900 338664 -84167 338666 -84168 338667 -84170 338668 -84171 338669 -84172 338670 -84173 84173 -84131 338671 -84174 43 -254540 338672 -84176 338673 84177 338675 -84178 338676 -84179 338677 -84180 84181 338679 -84182 254540 84140 -338680 84141 -84184 84185 338682 -84185 338683 -84186 44 -254541 338684 -84188 84188 -84144 338686 -84189 338687 -84190 338688 -84191 84192 -84148 338690 -84193 338691 -84194 338692 -84195 84196 -84152 338694 -84197 480595 -735136 45 -254542 -735138 735137 -480642 735140 -480643 735141 -480644 480644 735142 -480645 735143 -480646 735144 -480647 480648 -480603 735146 -480649 735147 -480650 735148 -480651 46 -254543 735149 -480606 -46 480607 -735150 735150 -480653 735151 -480654 480609 -735152 480610 -735153 735154 -480657 735155 -480658 735156 -480659 480659 735157 -480660 735158 -480661 735159 -480662 480663 -480616 -254544 47 735161 -480665 735162 735163 -480666 -3042020 -2787523 3042020 -2787522 3042019 -2787521 3042018 -2787520 3042017 254544 -47 2787520 -2787518 3042016 -2787517 3042014 -3042013 -2787515 3042012 -254545 -2787514 3042011 -2787513 3042010 -3042009 3042057 -2787511 3042008 -2787510 3042007 -2787509 3042006 254545 -48 -3042053 2787508 -2787507 3042004 3042005 -2787506 3042002 -49 -2787504 3042000 49 -254546 -2787502 3041999 -3041998 3042047 -2787500 3041997 -2787499 3041996 -2787498 3041995 -3041994 3042043 -2787496 3041993 -2787495 3041992 -2787494 3041991 -3041990 3042039 -2787493 3041990 -2787492 3041989 50 -8425661 205656 4397966574721 -10475666 10475668 -968758 -9506905 -4397962114996 4397971621909 -4397971621910 3199749 305975 4397959533735 -4397968116187 -3505724 4397971621912 -4397971621927 4397971621928 -4397971621926 4397971621927 -4397971621916 4397962065533 -4397962065534 4397962065534 -4397962065529 12087997 -10440138 4397970942811 -10475667 10475667 10475666 -10475663 9506917 -9506917 9506918 4397971621913 -4397971621913 4397962114995 9506921 -9506921 -4397962114997 3199763 4397968116196 -4397968116195 254547 4397958354720 -4397966436319 4397966436319 -4397958609267 -7827052 7521144 438 305472 4397958609262 -4397958914660 4397958914660 4397962114990 -4397962114987 -4321330 7521656 -3200326 4397962114984 -305396 3199814 188 -3200001 12089921 4397960115617 -10090556 -4397950025062 -4397958914657 -513 -3199813 12089925 4397959508346 -4397968397964 4397958914657 10475673 -4397969390843 4397958914982 -4397958914658 -4397958915171 305908 -512 -3200002 3200326 8888799 -12089125 3199813 8889316 4397959506366 -4397968395185 4397958914659 10475671 4397958915175 -4397962115010 4397971621934 -9506923 -4397962115013 4397971621937 -4397971621919 -4397970610672 -4112623 4397965216366 -3101375 3101376 -3101374 3101374 4397962114988 9506926 -4397971621937 -9506926 -4397971621938 4397971621941 -4397971621940 -4397971621939 4397971621930 -4397971621930 4397962114997 -4397962114994 3199748 4397958354769 -4397958354719 4397958354719 7827053 -305908 -7521582 7827054 -4397958914659 -4397960744552 -1370435 -4321328 5875552 1646104 -4397960560761 1951500 -1645780 -4397958915169 512 -324 4397958914981 -4397962114985 12089128 -8888799 -3199816 12089132 -8888804 8888816 -8889328 8889144 4397960501511 -995145 -9480529 4397958914656 -4397958915170 4397958915170 -10475669 4397960063908 -4397960063919 12088356 -12078674 12078683 4397950026636 -4397962105319 -9676 1647859 -4762034 4486859 186527 -1549534 12078682 -12078682 4397962105320 -4397971588625 4397961112954 -4397960467131 -671440 4397961138535 10475669 -968732 -9506931 9506931 -4397971621929 4397968116215 -16840 -5415 -4397968093962 4397968093962 4397968099376 -2133 -4397968097244 4397968097245 4397958354722 -4397976911988 4397975924297 -2909 -4397975921388 4397975921389 -9485065 9506943 -4397971621953 4397971621954 -4397971621941 4397971621900 968760 9506944 -9506945 -4397962115011 4397971621914 -968715 -9506948 4397968422162 -4397959533736 4397959533736 -4397971621915 4397972590671 -4397962115003 4397962115004 -4397950027010 4397960467148 -9506918 -9506916 -4397971621932 8582451 -8327954 -254547 -305909 -7696912 7391515 -7391514 7391440 -3200255 3200306 -3200306 4397962114964 -3200305 3199793 189 -3199982 8889595 -12089901 8890112 -4397968397963 4397958914658 324 -4397958915175 4397958915177 4397962115011 9506923 -4397971621936 -4397971621899 4397971621899 -4397974723295 4112623 -1011226 -3101395 3101396 -3101394 4397975692030 4397971621926 305976 -4397966306177 7696911 -7391002 -7391441 7696913 -4397960744553 4397960744552 -4191186 5745410 -1645781 -323 323 4397958914980 -3200329 3200328 -8889127 8889140 -8889143 4397969390654 -10475674 9480529 -4397968395186 -4397958915173 4397958915176 -4397960063920 9683 12078674 -12088356 4397960063919 -4397947975554 4397962105318 -4397962114995 -3114175 4762033 -1638180 1363006 -1363006 12078681 -10529148 -557167 4397971588625 -4397970942803 4397960467132 -4397961138576 4397961138581 10475663 9506935 -4397971621928 976448 4397970645490 -4397968422190 4397968405350 -4397968099375 -4397959516924 4397959511509 -4397968093961 4397968830388 -987690 -4397975791247 4397975791247 -10475662 9506945 -4397971621956 9506903 -9506903 -4397971621944 4397971621911 -4397968422162 -4397968116188 4397968116188 -12088179 4397968422171 -4397968116196 4397958609268 254496 -560405 560455 -560017 -305398 -7244990 4044661 3200304 -3200304 4397962114962 -3200303 3199791 190 -3199981 -12089899 -4397958609263 -3199791 12089103 -4397971621897 4397971621897 -1011224 -3101397 3101398 -3101396 -4397966159652 7550387 -7244916 7550388 -4044662 5598886 -1645782 -322 322 4397958914979 3200329 3199816 -8888816 -8889329 4397969390653 -4397960501511 4397950025837 9684 12078673 -12078681 4397962105317 -1638179 1363005 -1363005 12078680 4397961138537 -4397962535241 429922 -429924 429924 -4397962535240 4397962535241 9506930 4397971621929 4397968422190 -4397975647631 4397975644722 9506947 968715 -968760 4397971621910 -4397971621911 -3505739 -254496 -305910 74 -7063417 3863089 3200302 -3200302 4397962114960 -3200301 3199789 8890108 -12089897 12089901 191 -3199789 -3199980 8888803 -8889316 8889312 -4397971621895 4397971621895 -1011222 -3101399 3101400 -3101398 -7368814 7368813 -7063343 7368816 -3863089 5417313 -321 321 4397958914978 4397960501514 8889141 9685 12078672 -1638178 1363004 -1363004 12078679 -1549531 4397972580989 645822 4397971621938 -4397959511509 -4397975466058 4397975463150 -12088190 3505738 -4397971621914 -4397971621912 4397962065529 8327904 -8582450 -7261012 4397965870275 -4397958609264 -7261011 7261013 3199788 -3200300 4397962114958 -3200299 3199787 -12089895 12089899 -3199787 12089099 192 -3199979 -4397971621893 4397971621893 -1011220 -3101401 3101402 -3101400 -4397965870277 7261012 -6955541 -3755287 5309511 -1645783 -320 320 4397958914977 -8889332 4397968395506 -4397968395506 4397958914976 10475675 9686 12078671 -12078680 4397962105316 -1549530 4397972580988 -4397960467136 4397960467137 -4397970619894 -25618 -976417 -2223297 2529272 16839 -5414 5415 -4397968099376 4397968097243 987691 -4397968830438 4397967842698 -9487973 9485065 -4397975355347 4397975377226 -9556383 -4397962065533 4397972590670 437 -6827713 7133187 -75 4397958914736 -4397965742449 3627459 3200298 -3200298 4397962114956 -3200297 3199785 -12089893 12089897 -3199785 193 -3199978 12089097 -4397971621891 4397971621891 -1011218 -3101403 3101404 -3101402 -4397965742451 4397965742450 -4397958609266 -6827277 6827714 305473 -4397965742448 3627461 -3627460 5181684 -1645784 -319 319 4397968395505 995145 4397969390843 -12078679 4397962105315 -1638177 1363003 -1363003 12078678 4397960467136 976417 -976416 4397971605099 -4397968399936 -2223293 2529268 4397969084935 -990599 2907 -2908 -4397967839840 4397958354725 -40 -4397971621900 -4397971621954 -3627447 4397976218120 
Potential of Offsets elements: 218.27 262.27 28.2701 2347.11 28.2701 28.2701 28.2701 168.27 28.2701 267.27 28.2701 1191.27 28.2701 286.27 28.2701 28.2701 28.2701 28.2701 28.2701 28.2701 28.2701 28.2701 28.2701 28.2701 28.2701 28.2701 28.2701 28.2701 28.2701 28.2701 28.2701 28.2701 28.2701 2224.27 28.2701 28.2701 28.2701 28.2701 28.2701 28.2701 28.2701 28.2701 28.2701 28.2701 28.2701 28.2701 28.2701 28.2701 28.2701 28.2701 28.2701 28.2701 28.2701 28.2701 28.2701 28.2701 28.2701 28.2701 28.2701 28.2701 28.2701 28.2701 28.2701 28.2701 28.2701 28.2701 28.2701 1598.85 28.2701 28.2701 1902.27 28.2701 28.2701 28.2701 28.2701 28.2701 28.2701 28.2701 28.2701 28.2701 28.2701 28.2701 28.2701 28.2701 28.2701 28.2701 28.2701 28.2701 28.2701 28.2701 28.2701 28.2701 28.2701 28.2701 28.2701 28.2701 131.27 28.2701 28.2701 28.2701 28.2701 28.2701 28.2701 28.2701 28.2701 28.2701 28.2701 28.2701 28.2701 28.2701 28.2701 28.2701 28.2701 28.2701 28.2701 28.2701 28.2701 28.2701 28.2701 28.2701 28.2701 28.2701 28.2701 454.27 28.2701 28.2701 28.2701 28.2701 28.2701 332.27 28.2701 28.2701 28.2701 28.2701 28.2701 28.2701 28.2701 28.2701 28.2701 28.2701 28.2701 28.2701 28.2701 28.2701 28.2701 28.2701 28.2701 28.2701 28.2701 28.2701 28.2701 28.2701 28.2701 28.2701 28.2701 28.2701 1080.27 28.2701 28.2701 28.2701 28.2701 1178.27 28.2701 28.2701 28.2701 28.2701 28.2701 28.2701 28.2701 28.2701 28.2701 28.2701 28.2701 28.2701 28.2701 28.2701 28.2701 28.2701 28.2701 479.27 28.2701 28.2701 28.2701 28.2701 28.2701 28.2701 28.2701 28.2701 28.2701 28.2701 28.2701 28.2701 28.2701 28.2701 28.2701 570.27 28.2701 28.2701 28.2701 28.2701 28.2701 28.2701 28.2701 28.2701 28.2701 650.27 28.2701 28.2701 1098.27 28.2701 28.2701 28.2701 28.2701 28.2701 28.2701 28.2701 28.2701 28.2701 28.2701 28.2701 28.2701 28.2701 28.2701 28.2701 28.2701 28.2701 28.2701 28.2701 28.2701 28.2701 28.2701 627.27 28.2701 28.2701 28.2701 28.2701 28.2701 28.2701 28.2701 28.2701 279.27 28.2701 28.2701 28.2701 28.2701 28.2701 28.2701 28.2701 28.2701 28.2701 28.2701 28.2701 28.2701 28.2701 28.2701 28.2701 28.2701 489.27 28.2701 28.2701 28.2701 28.2701 28.2701 614.27 28.2701 28.2701 28.2701 28.2701 28.2701 28.2701 28.2701 28.2701 28.2701 28.2701 28.2701 28.2701 28.2701 28.2701 28.2701 28.2701 28.2701 28.2701 28.2701 28.2701 28.2701 28.2701 28.2701 892.27 28.2701 28.2701 28.2701 28.2701 28.2701 28.2701 28.2701 28.2701 28.2701 28.2701 429.27 28.2701 28.2701 28.2701 28.2701 28.2701 28.2701 28.2701 28.2701 28.2701 28.2701 28.2701 28.2701 28.2701 28.2701 517.27 28.2701 28.2701 28.2701 28.2701 28.2701 28.2701 28.2701 28.2701 28.2701 28.2701 28.2701 28.2701 28.2701 28.2701 28.2701 28.2701 28.2701 557.27 28.2701 28.2701 28.2701 28.2701 28.2701 28.2701 28.2701 28.2701 28.2701 211.27 28.2701 28.2701 280.27 28.2701 28.2701 28.2701 28.2701 28.2701 28.2701 28.2701 28.2701 28.2701 28.2701 28.2701 28.2701 28.2701 28.2701 28.2701 28.2701 28.2701 28.2701 28.2701 28.2701 28.2701 28.2701 28.2701 28.2701 28.2701 28.2701 28.2701 291.27 28.2701 28.2701 28.2701 28.2701 28.2701 28.2701 28.2701 28.2701 335.27 28.2701 28.2701 28.2701 28.2701 28.2701 28.2701 28.2701 28.2701 28.2701 28.2701 28.2701 28.2701 28.2701 29.2701 43.2701 28.2701 28.2701 28.2701 28.2701 28.2701 28.2701 28.2701 28.2701 28.2701 28.2701 427.27 28.2701 28.2701 28.2701 28.2701 28.2701 28.2701 28.2701 28.2701 28.2701 28.2701 28.2701 28.2701 28.2701 28.2701 28.2701 323.27 28.2701 28.2701 28.2701 28.2701 28.2701 28.2701 28.2701 28.2701 28.2701 40.2701 28.2701 28.2701 28.2701 28.2701 28.2701 28.2701 28.2701 28.2701 28.2701 28.2701 28.2701 28.2701 28.2701 28.2701 28.2701 28.2701 28.2701 162.27 28.2701 28.2701 28.2701 28.2701 28.2701 28.2701 28.2701 28.2701 28.2701 28.2701 86.2701 28.2701 28.2701 28.2701 28.2701 28.2701 28.2701 28.2701 28.2701 28.2701 28.2701 28.2701 28.2701 28.2701 28.2701 153.27 28.2701 28.2701 59.2701 28.2701 28.2701 28.2701 28.2701 28.2701 28.2701 28.2701 28.2701 28.2701 28.2701 28.2701 28.2701 28.2701 28.2701 28.2701 28.2701 81.2701 28.2701 28.2701 28.2701 28.2701 28.2701 28.2701 173.27 28.2701 28.2701 28.2701 28.2701 28.2701 28.2701 28.2701 28.2701 28.2701 28.2701 28.2701 28.2701 28.2701 28.2701 28.2701 28.2701 28.2701 67.2701 28.2701 28.2701 28.2701 28.2701 28.2701 28.2701 28.2701 28.2701 122.27 28.2701 28.2701 28.2701 28.2701 28.2701 28.2701 28.2701 28.2701 28.2701 28.2701 28.2701 28.2701 28.2701 28.2701 28.2701 90.2701 28.2701 28.2701 28.2701 28.2701 28.2701 28.2701 28.2701 28.2701 28.2701 28.2701 28.2701 28.2701 28.2701 28.2701 28.2701 28.2701 28.2701 28.2701 28.2701 124.27 28.2701 28.2701 28.2701 28.2701 28.2701 28.2701 28.2701 41.2701 28.2701 28.2701 28.2701 28.2701 28.2701 28.2701 28.2701 28.2701 28.2701 28.2701 28.2701 28.2701 28.2701 28.2701 28.2701 85.2701 28.2701 28.2701 133.27 28.2701 28.2701 28.2701 28.2701 28.2701 28.2701 28.2701 28.2701 28.2701 28.2701 28.2701 28.2701 28.2701 28.2701 28.2701 28.2701 28.2701 28.2701 28.2701 28.2701 28.2701 28.2701 28.2701 45.2701 44.2701 28.2701 28.2701 28.2701 28.2701 28.2701 28.2701 28.2701 28.2701 28.2701 28.2701 28.2701 28.2701 28.2701 28.2701 28.2701 28.2701 28.2701 28.2701 28.2701 28.2701 28.2701 28.2701 74.2701 28.2701 28.2701 28.2701 28.2701 28.2701 28.2701 30.2701 28.2701 28.2701 28.2701 28.2701 28.2701 28.2701 28.2701 28.2701 28.2701 28.2701 28.2701 28.2701 28.2701 28.2701 28.2701 28.2701 28.2701 28.2701 28.2701 28.2701 33.2701 28.2701 28.2701 28.2701 28.2701 28.2701 28.2701 28.2701 28.2701 28.2701 28.2701 28.2701 28.2701 28.2701 28.2701 28.2701 28.2701 28.2701 28.2701 28.2701 28.2701 28.2701 49.2701 28.2701 28.2701 28.2701 53.2701 28.2701 28.2701 28.2701 28.2701 28.2701 28.2701 28.2701 106.27 28.2701 28.2701 28.2701 28.2701 28.2701 28.2701 28.2701 28.2701 28.2701 28.2701 28.2701 28.2701 28.2701 28.2701 28.2701 28.2701 28.2701 101.27 28.2701 28.2701 105.27 28.2701 28.2701 28.2701 28.2701 28.2701 28.2701 28.2701 28.2701 28.2701 28.2701 28.2701 28.2701 28.2701 28.2701 28.2701 28.2701 28.2701 28.2701 28.2701 28.2701 28.2701 28.2701 28.2701 28.2701 60.2701 28.2701 28.2701 28.2701 28.2701 28.2701 28.2701 108.27 28.2701 28.2701 28.2701 28.2701 28.2701 28.2701 28.2701 28.2701 28.2701 28.2701 28.2701 28.2701 28.2701 28.2701 28.2701 28.2701 28.2701 29.2701 28.2701 28.2701 28.2701 28.2701 28.2701 28.2701 37.2701 28.2701 28.2701 28.2701 28.2701 28.2701 28.2701 28.2701 28.2701 28.2701 28.2701 28.2701 28.2701 28.2701 28.2701 28.2701 28.2701 28.2701 28.2701 45.2701 28.2701 28.2701 54.2701 28.2701 28.2701 28.2701 28.2701 28.2701 28.2701 28.2701 28.2701 28.2701 28.2701 28.2701 28.2701 28.2701 28.2701 28.2701 28.2701 28.2701 28.2701 28.2701 28.2701 28.2701 124.27 28.2701 28.2701 28.2701 28.2701 28.2701 28.2701 28.2701 28.2701 48.2701 28.2701 28.2701 28.2701 28.2701 28.2701 28.2701 28.2701 28.2701 28.2701 28.2701 28.2701 28.2701 28.2701 28.2701 28.2701 28.2701 28.2701 28.2701 28.2701 37.2701 28.2701 28.2701 28.2701 120.27 28.2701 28.2701 28.2701 28.2701 28.2701 28.2701 28.2701 28.2701 28.2701 28.2701 28.2701 28.2701 28.2701 28.2701 28.2701 28.2701 28.2701 28.2701 28.2701 28.2701 28.2701 28.2701 28.2701 28.2701 28.2701 28.2701 28.2701 28.2701 28.2701 28.2701 28.2701 28.2701 28.2701 28.2701 28.2701 28.2701 28.2701 28.2701 28.2701 28.2701 28.2701 28.2701 28.2701 28.2701 28.2701 28.2701 28.2701 28.2701 28.2701 30.2701 28.2701 28.2701 28.2701 28.2701 28.2701 28.2701 28.2701 107.27 28.2701 28.2701 28.2701 28.2701 28.2701 28.2701 28.2701 28.2701 28.2701 28.2701 28.2701 28.2701 28.2701 28.2701 28.2701 28.2701 28.2701 28.2701 28.2701 28.2701 74.2701 28.2701 28.2701 28.2701 28.2701 28.2701 28.2701 28.2701 28.2701 28.2701 28.2701 28.2701 28.2701 28.2701 28.2701 28.2701 28.2701 28.2701 28.2701 28.2701 28.2701 28.2701 28.2701 353.27 28.2701 28.2701 502.27 28.2701 28.2701 28.2701 28.2701 28.2701 28.2701 28.2701 28.2701 28.2701 28.2701 28.2701 28.2701 28.2701 28.2701 28.2701 28.2701 28.2701 28.2701 28.2701 28.2701 28.2701 28.2701 28.2701 28.2701 28.2701 74.2701 28.2701 28.2701 29.2701 28.2701 28.2701 28.2701 28.2701 28.2701 28.2701 28.2701 28.2701 28.2701 28.2701 28.2701 28.2701 28.2701 28.2701 28.2701 28.2701 28.2701 28.2701 28.2701 28.2701 28.2701 28.2701 28.2701 28.2701 28.2701 32.2701 28.2701 28.2701 28.2701 28.2701 28.2701 28.2701 28.2701 28.2701 28.2701 28.2701 28.2701 28.2701 28.2701 28.2701 28.2701 28.2701 28.2701 28.2701 28.2701 50.2701 28.2701 28.2701 28.2701 28.2701 28.2701 28.2701 28.2701 28.2701 28.2701 28.2701 28.2701 40.2701 28.2701 28.2701 28.2701 28.2701 28.2701 28.2701 28.2701 28.2701 28.2701 28.2701 28.2701 28.2701 28.2701 28.2701 28.2701 28.2701 28.2701 28.2701 28.2701 28.2701 28.2701 28.2701 28.2701 28.2701 28.2701 30.2701 28.2701 28.2701 28.2701 28.2701 28.2701 28.2701 28.2701 28.2701 28.2701 28.2701 28.2701 28.2701 28.2701 28.2701 28.2701 28.2701 28.2701 28.2701 28.2701 28.2701 28.2701 28.2701 28.2701 28.2701 28.2701 28.2701 28.2701 28.2701 34.2701 28.2701 28.2701 28.2701 28.2701 28.2701 84.2701 28.2701 28.2701 28.2701 28.2701 28.2701 28.2701 28.2701 28.2701 28.2701 28.2701 28.2701 28.2701 28.2701 28.2701 28.2701 28.2701 28.2701 28.2701 28.2701 28.2701 28.2701 28.2701 28.2701 28.2701 28.2701 28.2701 28.2701 28.2701 28.2701 28.2701 28.2701 28.2701 28.2701 28.2701 28.2701 28.2701 28.2701 28.2701 28.2701 28.2701 28.2701 28.2701 28.2701 28.2701 30.2701 28.2701 28.2701 28.2701 28.2701 28.2701 28.2701 28.2701 28.2701 28.2701 28.2701 28.2701 28.2701 28.2701 28.2701 28.2701 28.2701 28.2701 28.2701 28.2701 28.2701 28.2701 28.2701 28.2701 28.2701 36.2701 28.2701 28.2701 28.2701 28.2701 28.2701 28.2701 28.2701 28.2701 28.2701 28.2701 28.2701 28.2701 28.2701 28.2701 28.2701 28.2701 28.2701 28.2701 28.2701 28.2701 28.2701 28.2701 28.2701 28.2701 28.2701 31.2701 28.2701 28.2701 28.2701 28.2701 28.2701 28.2701 28.2701 28.2701 28.2701 28.2701 28.2701 28.2701 28.2701 28.2701 28.2701 28.2701 28.2701 28.2701 28.2701 28.2701 28.2701 28.2701 28.2701 33.2701 28.2701 28.2701 28.2701 29.2701 28.2701 28.2701 28.2701 28.2701 28.2701 28.2701 28.2701 28.2701 28.2701 28.2701 28.2701 28.2701 28.2701 28.2701 28.2701 28.2701 28.2701 28.2701 28.2701 28.2701 28.2701 28.2701 28.2701 28.2701 28.2701 28.2701 56.2701 28.2701 28.2701 28.2701 28.2701 28.2701 28.2701 28.2701 28.2701 28.2701 28.2701 28.2701 28.2701 28.2701 28.2701 28.2701 29.2701 28.2701 28.2701 28.2701 28.2701 28.2701 28.2701 28.2701 28.2701 28.2701 28.2701 28.2701 28.2701 28.2701 28.2701 28.2701 28.2701 28.2701 28.2701 28.2701 28.2701 28.2701 28.2701 28.2701 28.2701 28.2701 28.2701 28.2701 28.2701 28.2701 28.2701 28.2701 28.2701 28.2701 28.2701 28.2701 28.2701 28.2701 28.2701 28.2701 28.2701 28.2701 28.2701 28.2701 28.2701 28.2701 28.2701 28.2701 28.2701 28.2701 28.2701 28.2701 28.2701 28.2701 28.2701 28.2701 28.2701 28.2701 28.2701 28.2701 28.2701 28.2701 28.2701 28.2701 353.27 308.27 28.2701 28.2701 28.2701 28.2701 28.2701 28.2701 28.2701 28.2701 28.2701 28.2701 28.2701 28.2701 28.2701 28.2701 28.2701 28.2701 28.2701 28.2701 28.2701 28.2701 28.2701 32.2701 121.27 271.27 258.27 268.27 366.27 69.2701 142.27 92.2701 28.2701 28.2701 28.2701 28.2701 28.2701 28.2701 28.2701 28.2701 28.2701 28.2701 28.2701 28.2701 28.2701 28.2701 28.2701 28.2701 28.2701 28.2701 28.2701 28.2701 28.2701 28.2701 28.2701 28.2701 28.2701 28.2701 28.2701 28.2701 28.2701 29.2701 28.2701 28.2701 28.2701 28.2701 28.2701 28.2701 28.2701 28.2701 28.2701 28.2701 28.2701 28.2701 28.2701 28.2701 28.2701 28.2701 28.2701 28.2701 28.2701 28.2701 28.2701 28.2701 28.2701 28.2701 28.2701 28.2701 28.2701 28.2701 28.2701 28.2701 28.2701 28.2701 28.2701 28.2701 28.2701 28.2701 28.2701 28.2701 28.2701 28.2701 28.2701 28.2701 28.2701 28.2701 28.2701 28.2701 28.2701 28.2701 28.2701 28.2701 28.2701 28.2701 28.2701 28.2701 28.2701 28.2701 28.2701 28.2701 28.2701 28.2701 28.2701 28.2701 28.2701 28.2701 44.2701 28.2701 28.2701 28.2701 28.2701 28.2701 28.2701 28.2701 28.2701 28.2701 28.2701 28.2701 28.2701 28.2701 28.2701 28.2701 28.2701 28.2701 28.2701 28.2701 28.2701 28.2701 28.2701 28.2701 28.2701 28.2701 28.2701 28.2701 28.2701 28.2701 28.2701 28.2701 28.2701 28.2701 28.2701 28.2701 28.2701 28.2701 28.2701 28.2701 28.2701 28.2701 28.2701 28.2701 28.2701 28.2701 28.2701 28.2701 28.2701 28.2701 28.2701 28.2701 28.2701 28.2701 28.2701 28.2701 28.2701 28.2701 28.2701 28.2701 28.2701 28.2701 28.2701 28.2701 28.2701 28.2701 28.2701 28.2701 28.2701 28.2701 28.2701 28.2701 28.2701 28.2701 28.2701 28.2701 28.2701 28.2701 28.2701 28.2701 28.2701 28.2701 28.2701 28.2701 28.2701 28.2701 28.2701 28.2701 28.2701 42.2701 96.2701 186.27 49.2701 28.2701 28.2701 28.2701 28.2701 28.2701 28.2701 28.2701 28.2701 28.2701 28.2701 28.2701 28.2701 28.2701 28.2701 28.2701 28.2701 28.2701 28.2701 28.2701 28.2701 28.2701 28.2701 28.2701 28.2701 28.2701 28.2701 28.2701 28.2701 28.2701 28.2701 28.2701 28.2701 28.2701 28.2701 28.2701 28.2701 204.27 28.2701 28.2701 28.2701 28.2701 28.2701 28.2701 28.2701 28.2701 28.2701 28.2701 28.2701 28.2701 28.2701 28.2701 28.2701 28.2701 28.2701 28.2701 28.2701 28.2701 28.2701 28.2701 28.2701 28.2701 28.2701 28.2701 28.2701 28.2701 28.2701 28.2701 28.2701 28.2701 28.2701 28.2701 28.2701 29.2701 28.2701 28.2701 28.2701 28.2701 28.2701 28.2701 28.2701 28.2701 28.2701 28.2701 33.2701 509.27 28.2701 28.2701 28.2701 28.2701 28.2701 28.2701 28.2701 38.2701 40.2701 28.2701 28.2701 74.2701 28.2701 28.2701 238.27 28.2701 28.2701 28.2701 28.2701 28.2701 28.2701 28.2701 28.2701 28.2701 28.2701 28.2701 28.2701 28.2701 28.2701 28.2701 28.2701 28.2701 28.2701 28.2701 28.2701 28.2701 28.2701 28.2701 28.2701 28.2701 28.2701 28.2701 28.2701 28.2701 28.2701 28.2701 28.2701 28.2701 28.2701 28.2701 28.2701 28.2701 28.2701 28.2701 28.2701 28.2701 28.2701 28.2701 28.2701 28.2701 28.2701 28.2701 28.2701 28.2701 28.2701 28.2701 28.2701 28.2701 28.2701 28.2701 28.2701 28.2701 28.2701 28.2701 28.2701 28.2701 28.2701 28.2701 28.2701 28.2701 28.2701 28.2701 28.2701 28.2701 28.2701 28.2701 28.2701 28.2701 28.2701 28.2701 28.2701 28.2701 28.2701 28.2701 28.2701 28.2701 28.2701 28.2701 28.2701 28.2701 28.2701 28.2701 28.2701 28.2701 28.2701 28.2701 28.2701 28.2701 28.2701 28.2701 28.2701 28.2701 28.2701 28.2701 28.2701 28.2701 28.2701 28.2701 28.2701 28.2701 28.2701 28.2701 28.2701 28.2701 28.2701 28.2701 28.2701 28.2701 28.2701 28.2701 28.2701 28.2701 28.2701 28.2701 28.2701 28.2701 28.2701 28.2701 28.2701 28.2701 28.2701 28.2701 28.2701 28.2701 28.2701 28.2701 28.2701 28.2701 28.2701 28.2701 28.2701 28.2701 28.2701 28.2701 28.2701 28.2701 28.2701 28.2701 28.2701 28.2701 28.2701 28.2701 28.2701 28.2701 28.2701 30.2701 28.2701 28.2701 28.2701 28.2701 28.2701 28.2701 28.2701 28.2701 28.2701 28.2701 28.2701 28.2701 28.2701 28.2701 28.2701 28.2701 28.2701 28.2701 28.2701 28.2701 28.2701 28.2701 28.2701 28.2701 28.2701 28.2701 28.2701 54.2701 76.2701 29.2701 32.2701 28.2701 28.2701 28.2701 31.2701 40.2701 32.2701 28.2701 28.2701 28.2701 28.2701 28.2701 28.2701 28.2701 28.2701 28.2701 28.2701 28.2701 28.2701 30.2701 28.2701 28.2701 28.2701 28.2701 28.2701 28.2701 28.2701 28.2701 28.2701 28.2701 28.2701 28.2701 28.2701 28.2701 347.27 28.2701 28.2701 28.2701 28.2701 28.2701 28.2701 28.2701 28.2701 28.2701 28.2701 28.2701 28.2701 28.2701 28.2701 28.2701 28.2701 28.2701 28.2701 28.2701 28.2701 28.2701 28.2701 28.2701 28.2701 28.2701 28.2701 28.2701 28.2701 28.2701 28.2701 28.2701 28.2701 28.2701 28.2701 28.2701 28.2701 28.2701 28.2701 28.2701 28.2701 28.2701 28.2701 28.2701 65.2701 28.2701 28.2701 28.2701 28.2701 
rewards of Offsets elements: 190 234 0 2347 0 0 0 140 0 239 0 1163 0 258 0 0 0 0 0 0 0 0 0 0 0 0 0 0 0 0 0 0 0 2196 0 0 0 0 0 0 0 0 0 0 0 0 0 0 0 0 0 0 0 0 0 0 0 0 0 0 0 0 0 0 0 0 0 1598 0 0 1874 0 0 0 0 0 0 0 0 0 0 0 0 0 0 0 0 0 0 0 0 0 0 0 0 0 103 0 0 0 0 0 0 0 0 0 0 0 0 0 0 0 0 0 0 0 0 0 0 0 0 0 0 426 0 0 0 0 0 304 0 0 0 0 0 0 0 0 0 0 0 0 0 0 0 0 0 0 0 0 0 0 0 0 0 0 1052 0 0 0 0 1150 0 0 0 0 0 0 0 0 0 0 0 0 0 0 0 0 0 451 0 0 0 0 0 0 0 0 0 0 0 0 0 0 0 542 0 0 0 0 0 0 0 0 0 622 0 0 1070 0 0 0 0 0 0 0 0 0 0 0 0 0 0 0 0 0 0 0 0 0 0 599 0 0 0 0 0 0 0 0 251 0 0 0 0 0 0 0 0 0 0 0 0 0 0 0 0 461 0 0 0 0 0 586 0 0 0 0 0 0 0 0 0 0 0 0 0 0 0 0 0 0 0 0 0 0 0 864 0 0 0 0 0 0 0 0 0 0 401 0 0 0 0 0 0 0 0 0 0 0 0 0 0 489 0 0 0 0 0 0 0 0 0 0 0 0 0 0 0 0 0 529 0 0 0 0 0 0 0 0 0 183 0 0 252 0 0 0 0 0 0 0 0 0 0 0 0 0 0 0 0 0 0 0 0 0 0 0 0 0 0 0 263 0 0 0 0 0 0 0 0 307 0 0 0 0 0 0 0 0 0 0 0 0 0 1 15 0 0 0 0 0 0 0 0 0 0 399 0 0 0 0 0 0 0 0 0 0 0 0 0 0 0 295 0 0 0 0 0 0 0 0 0 12 0 0 0 0 0 0 0 0 0 0 0 0 0 0 0 0 0 134 0 0 0 0 0 0 0 0 0 0 58 0 0 0 0 0 0 0 0 0 0 0 0 0 0 125 0 0 31 0 0 0 0 0 0 0 0 0 0 0 0 0 0 0 0 53 0 0 0 0 0 0 145 0 0 0 0 0 0 0 0 0 0 0 0 0 0 0 0 0 39 0 0 0 0 0 0 0 0 94 0 0 0 0 0 0 0 0 0 0 0 0 0 0 0 62 0 0 0 0 0 0 0 0 0 0 0 0 0 0 0 0 0 0 0 96 0 0 0 0 0 0 0 13 0 0 0 0 0 0 0 0 0 0 0 0 0 0 0 57 0 0 105 0 0 0 0 0 0 0 0 0 0 0 0 0 0 0 0 0 0 0 0 0 0 0 17 16 0 0 0 0 0 0 0 0 0 0 0 0 0 0 0 0 0 0 0 0 0 0 46 0 0 0 0 0 0 2 0 0 0 0 0 0 0 0 0 0 0 0 0 0 0 0 0 0 0 0 5 0 0 0 0 0 0 0 0 0 0 0 0 0 0 0 0 0 0 0 0 0 21 0 0 0 25 0 0 0 0 0 0 0 78 0 0 0 0 0 0 0 0 0 0 0 0 0 0 0 0 0 73 0 0 77 0 0 0 0 0 0 0 0 0 0 0 0 0 0 0 0 0 0 0 0 0 0 0 0 32 0 0 0 0 0 0 80 0 0 0 0 0 0 0 0 0 0 0 0 0 0 0 0 0 1 0 0 0 0 0 0 9 0 0 0 0 0 0 0 0 0 0 0 0 0 0 0 0 0 0 17 0 0 26 0 0 0 0 0 0 0 0 0 0 0 0 0 0 0 0 0 0 0 0 0 96 0 0 0 0 0 0 0 0 20 0 0 0 0 0 0 0 0 0 0 0 0 0 0 0 0 0 0 0 9 0 0 0 92 0 0 0 0 0 0 0 0 0 0 0 0 0 0 0 0 0 0 0 0 0 0 0 0 0 0 0 0 0 0 0 0 0 0 0 0 0 0 0 0 0 0 0 0 0 0 0 0 0 2 0 0 0 0 0 0 0 79 0 0 0 0 0 0 0 0 0 0 0 0 0 0 0 0 0 0 0 0 46 0 0 0 0 0 0 0 0 0 0 0 0 0 0 0 0 0 0 0 0 0 0 325 0 0 474 0 0 0 0 0 0 0 0 0 0 0 0 0 0 0 0 0 0 0 0 0 0 0 0 0 46 0 0 1 0 0 0 0 0 0 0 0 0 0 0 0 0 0 0 0 0 0 0 0 0 0 0 0 0 4 0 0 0 0 0 0 0 0 0 0 0 0 0 0 0 0 0 0 0 22 0 0 0 0 0 0 0 0 0 0 0 12 0 0 0 0 0 0 0 0 0 0 0 0 0 0 0 0 0 0 0 0 0 0 0 0 0 2 0 0 0 0 0 0 0 0 0 0 0 0 0 0 0 0 0 0 0 0 0 0 0 0 0 0 0 0 6 0 0 0 0 0 56 0 0 0 0 0 0 0 0 0 0 0 0 0 0 0 0 0 0 0 0 0 0 0 0 0 0 0 0 0 0 0 0 0 0 0 0 0 0 0 0 0 0 0 0 2 0 0 0 0 0 0 0 0 0 0 0 0 0 0 0 0 0 0 0 0 0 0 0 0 8 0 0 0 0 0 0 0 0 0 0 0 0 0 0 0 0 0 0 0 0 0 0 0 0 0 3 0 0 0 0 0 0 0 0 0 0 0 0 0 0 0 0 0 0 0 0 0 0 0 5 0 0 0 1 0 0 0 0 0 0 0 0 0 0 0 0 0 0 0 0 0 0 0 0 0 0 0 0 0 0 28 0 0 0 0 0 0 0 0 0 0 0 0 0 0 0 1 0 0 0 0 0 0 0 0 0 0 0 0 0 0 0 0 0 0 0 0 0 0 0 0 0 0 0 0 0 0 0 0 0 0 0 0 0 0 0 0 0 0 0 0 0 0 0 0 0 0 0 0 0 0 0 0 0 0 0 0 0 0 0 325 280 0 0 0 0 0 0 0 0 0 0 0 0 0 0 0 0 0 0 0 0 0 4 93 243 230 240 338 41 114 64 0 0 0 0 0 0 0 0 0 0 0 0 0 0 0 0 0 0 0 0 0 0 0 0 0 0 0 0 0 1 0 0 0 0 0 0 0 0 0 0 0 0 0 0 0 0 0 0 0 0 0 0 0 0 0 0 0 0 0 0 0 0 0 0 0 0 0 0 0 0 0 0 0 0 0 0 0 0 0 0 0 0 0 0 0 0 0 0 0 0 0 0 0 0 16 0 0 0 0 0 0 0 0 0 0 0 0 0 0 0 0 0 0 0 0 0 0 0 0 0 0 0 0 0 0 0 0 0 0 0 0 0 0 0 0 0 0 0 0 0 0 0 0 0 0 0 0 0 0 0 0 0 0 0 0 0 0 0 0 0 0 0 0 0 0 0 0 0 0 0 0 0 0 0 0 0 0 0 0 0 0 0 0 14 68 158 21 0 0 0 0 0 0 0 0 0 0 0 0 0 0 0 0 0 0 0 0 0 0 0 0 0 0 0 0 0 0 0 0 0 0 0 0 176 0 0 0 0 0 0 0 0 0 0 0 0 0 0 0 0 0 0 0 0 0 0 0 0 0 0 0 0 0 0 0 0 0 0 0 1 0 0 0 0 0 0 0 0 0 0 5 481 0 0 0 0 0 0 0 10 12 0 0 46 0 0 210 0 0 0 0 0 0 0 0 0 0 0 0 0 0 0 0 0 0 0 0 0 0 0 0 0 0 0 0 0 0 0 0 0 0 0 0 0 0 0 0 0 0 0 0 0 0 0 0 0 0 0 0 0 0 0 0 0 0 0 0 0 0 0 0 0 0 0 0 0 0 0 0 0 0 0 0 0 0 0 0 0 0 0 0 0 0 0 0 0 0 0 0 0 0 0 0 0 0 0 0 0 0 0 0 0 0 0 0 0 0 0 0 0 0 0 0 0 0 0 0 0 0 0 0 0 0 0 0 0 0 0 0 0 0 0 0 0 0 0 0 0 0 0 0 0 0 0 0 0 0 2 0 0 0 0 0 0 0 0 0 0 0 0 0 0 0 0 0 0 0 0 0 0 0 0 0 0 0 26 48 1 4 0 0 0 3 12 4 0 0 0 0 0 0 0 0 0 0 0 0 2 0 0 0 0 0 0 0 0 0 0 0 0 0 0 319 0 0 0 0 0 0 0 0 0 0 0 0 0 0 0 0 0 0 0 0 0 0 0 0 0 0 0 0 0 0 0 0 0 0 0 0 0 0 0 0 0 0 0 37 0 0 0 0 Printing Sanity3
offset_index value1926
offset list size1926
reward size1926
potential size1926
-----------------------------------------------------------------------------------------------------------------------------------------------------------------------------------------------------

DRAM Statistics
 CHANNEL 0
 RQ ROW_BUFFER_HIT:     191241  ROW_BUFFER_MISS:     729808
 DBUS_CONGESTED:        326
 WQ ROW_BUFFER_HIT:     117619  ROW_BUFFER_MISS:     320615  FULL:          0

 AVG_CONGESTED_CYCLE: 4
 All warmup complete: 2
Channel 0 Bank busy for read cycles: 0
Channel 0 Bank busy for write cycles: 0
Channel 0
Rank 0
0banks busy for read cycles: 254394856
0banks busy for write cycles: 179189
1banks busy for read cycles: 62270928
1banks busy for write cycles: 27258719
2banks busy for read cycles: 12902239
2banks busy for write cycles: 9210909
3banks busy for read cycles: 4211237
3banks busy for write cycles: 4040528
4banks busy for read cycles: 1383923
4banks busy for write cycles: 2041540
5banks busy for read cycles: 469520
5banks busy for write cycles: 1035317
6banks busy for read cycles: 514141
6banks busy for write cycles: 571576
7banks busy for read cycles: 224618
7banks busy for write cycles: 521412
8banks busy for read cycles: 741115
8banks busy for write cycles: 2342864

CPU 0 Branch Prediction Accuracy: 99.0203% MPKI: 1.6776 Average ROB Occupancy at Mispredict: 39.7147
Branch types
NOT_BRANCH: 165753023 82.8765%
BRANCH_DIRECT_JUMP: 1806110 0.903055%
BRANCH_INDIRECT: 7197239 3.59862%
BRANCH_CONDITIONAL: 19602510 9.80125%
BRANCH_DIRECT_CALL: 1904338 0.952169%
BRANCH_INDIRECT_CALL: 912580 0.45629%
BRANCH_RETURN: 2823894 1.41195%
BRANCH_OTHER: 0 0%

DRAM PAGES: 1048576
Allocated PAGES: 10830
