
*** ChampSim Multicore Out-of-Order Simulator ***

Warmup Instructions: 50000000
Simulation Instructions: 200000000
Number of CPUs: 1
LLC sets: 2048
LLC ways: 16
Off-chip DRAM Size: 4096 MB Channels: 1 Width: 64-bit Data Rate: 6400 MT/s
CPU 0 runs traces/spec2k17/client_001.champsimtrace.xz
.xz
BTB has LRU replacement policy
ITLB has LRU replacement policy
DTLB has LRU replacement policy
STLB has LRU replacement policy
L1I has LRU replacement policy
L1D has LRU replacement policy
Initialize SRRIP state for L2C
Initialize DRRIP state for LLC
Heartbeat CPU 0 instructions: 10000003 cycles: 2841511 heartbeat IPC: 3.51926 cumulative IPC: 3.51926 (Simulation time: 0 hr 0 min 42 sec) 
Heartbeat CPU 0 instructions: 20000002 cycles: 5746740 heartbeat IPC: 3.44207 cumulative IPC: 3.48023 (Simulation time: 0 hr 1 min 24 sec) 
Heartbeat CPU 0 instructions: 30000003 cycles: 8559940 heartbeat IPC: 3.55467 cumulative IPC: 3.5047 (Simulation time: 0 hr 2 min 4 sec) 
Heartbeat CPU 0 instructions: 40000003 cycles: 11597538 heartbeat IPC: 3.29207 cumulative IPC: 3.44901 (Simulation time: 0 hr 2 min 47 sec) 
Heartbeat CPU 0 instructions: 50000000 cycles: 14381562 heartbeat IPC: 3.59192 cumulative IPC: 3.47667 (Simulation time: 0 hr 3 min 27 sec) 

Warmup complete CPU 0 instructions: 50000004 cycles: 14381563 (Simulation time: 0 hr 3 min 27 sec) 

Offsets elements: 
Potential of Offsets elements: 
rewards of Offsets elements: 
Printing Sanity1
offset list size1765
Offsets elements: 
Potential of Offsets elements: 
rewards of Offsets elements: 1052 260 0 634 504 0 560 81 0 0 362 0 0 0 0 167 132 131 835 0 0 0 0 0 0 0 0 0 0 97 0 0 0 0 0 0 0 0 0 0 0 0 0 0 0 0 0 464 0 0 0 0 0 0 0 0 0 0 0 0 0 0 0 0 0 0 0 0 0 0 0 0 0 0 0 0 0 0 0 0 0 0 0 0 0 0 0 0 0 0 0 0 0 0 0 0 0 0 0 0 0 0 0 0 0 0 0 0 0 0 0 0 0 0 0 0 0 0 0 0 0 0 0 0 0 0 0 0 0 0 0 0 0 0 0 0 0 0 0 0 0 0 0 0 0 0 0 0 0 0 0 0 0 0 0 0 0 0 0 0 0 0 0 0 0 0 0 0 0 0 0 0 0 0 0 0 0 0 0 0 0 0 0 0 0 0 0 0 0 0 0 0 0 0 0 0 0 0 0 0 0 0 0 0 0 0 0 0 0 0 0 0 0 0 0 0 0 0 0 0 0 0 0 0 0 0 0 0 0 0 0 0 0 0 0 0 0 0 0 0 0 0 0 0 0 0 0 0 0 0 0 0 0 0 0 0 0 0 0 0 0 0 0 0 0 0 0 0 0 0 0 0 0 0 0 0 0 0 0 0 0 0 0 0 0 8 169 297 321 1 36 0 0 0 0 1 0 0 0 0 0 0 0 0 0 96 155 0 0 0 0 0 0 0 0 15 10 6 0 13 0 0 0 0 28 28 36 0 0 221 0 542 9 159 0 519 0 682 90 0 0 0 0 91 0 180 0 0 0 0 0 0 0 0 0 0 0 0 0 0 0 0 0 0 0 791 0 0 184 0 0 0 0 0 0 0 0 30 25 6 21 0 0 0 9 0 0 0 0 0 0 0 0 0 2 0 0 2 0 0 24 0 0 0 44 0 458 6 0 0 0 0 0 0 0 0 0 0 0 0 0 0 0 0 0 0 0 0 0 0 0 0 0 0 0 0 0 0 0 0 0 0 0 0 0 0 0 0 0 0 0 140 707 0 259 1424 0 0 0 0 0 0 0 0 46 84 0 0 0 0 0 0 0 0 0 0 0 0 0 0 0 0 0 0 0 0 248 40 0 0 0 0 0 0 0 0 0 0 4 0 0 0 0 0 345 0 0 0 0 0 0 0 0 0 0 0 8 132 288 0 0 0 0 0 0 57 0 0 0 0 0 90 0 0 0 565 0 0 0 0 0 0 0 0 0 0 0 0 0 49 0 0 9 0 0 112 12 10 270 0 0 0 60 4 64 0 0 144 176 0 0 0 0 0 0 694 0 0 0 0 0 2 0 0 8 2 0 18 185 242 0 0 0 0 0 0 119 14 0 0 0 276 5 0 220 288 0 0 0 0 0 0 0 3 19 0 0 39 165 0 0 0 0 152 0 0 0 0 20 0 0 4 12 340 0 0 0 0 102 0 0 0 0 0 0 0 0 0 0 0 0 0 0 0 0 0 0 0 0 0 0 0 0 0 0 0 0 0 0 0 0 0 0 0 0 0 0 0 0 0 33 0 0 0 0 0 0 0 0 0 0 0 0 0 0 0 0 0 0 0 0 0 0 0 0 0 0 0 0 0 0 0 0 0 0 0 0 0 0 0 0 0 0 0 0 0 0 0 0 0 0 0 0 0 0 0 0 0 0 0 0 0 0 0 0 0 0 0 0 0 0 0 0 0 0 0 0 0 0 0 0 0 0 0 0 0 0 0 0 0 0 0 0 0 0 0 0 0 0 0 0 0 3 0 0 0 0 0 0 0 0 0 0 0 0 0 0 0 0 0 0 0 0 0 0 0 0 0 0 0 0 0 0 0 0 0 0 0 0 0 0 0 13 0 0 0 0 0 0 120 0 0 0 0 0 0 16 0 0 0 0 0 0 0 0 0 0 0 0 12 0 0 0 0 0 0 0 0 0 0 0 0 0 0 0 0 0 0 0 0 0 0 0 0 0 0 0 0 0 0 802 0 0 253 0 0 56 0 0 0 0 0 10 0 0 0 0 0 0 0 0 0 0 0 0 0 0 0 0 0 0 0 0 0 0 0 0 0 0 0 0 0 0 0 0 0 0 0 9 0 0 0 2 0 0 0 0 0 0 0 0 0 0 0 0 0 0 0 0 0 0 0 12 4 0 0 0 0 0 0 0 0 0 0 0 81 0 0 0 0 0 0 0 0 0 0 0 0 0 0 0 0 0 0 0 0 0 0 0 0 3 0 0 0 0 0 0 0 0 0 0 0 0 0 0 0 0 0 0 0 0 0 0 0 0 0 0 0 0 0 0 0 0 0 0 0 0 0 0 0 0 0 0 0 0 0 0 0 0 0 0 0 0 0 0 0 0 0 13 0 0 10 0 0 0 0 0 0 0 0 0 0 0 0 0 0 0 0 0 0 0 0 0 0 0 0 0 0 0 0 0 0 0 0 0 0 0 0 0 0 0 0 0 0 0 0 0 0 0 0 0 0 0 0 0 0 0 154 0 0 0 0 0 0 0 0 0 0 0 0 0 0 0 0 0 0 0 0 0 0 0 0 0 0 0 0 0 0 0 0 0 0 0 0 0 0 0 0 0 0 0 0 0 0 0 0 0 0 0 0 0 0 0 0 0 0 0 0 0 0 0 0 0 0 0 0 0 0 0 0 0 0 0 0 0 0 0 0 0 0 0 0 0 0 0 0 0 0 0 0 0 0 0 0 12 0 0 0 0 0 0 0 0 0 0 0 0 0 0 0 0 0 0 0 0 0 0 0 0 0 0 0 1018 0 0 0 0 0 0 0 0 0 0 0 0 0 0 0 0 0 0 0 0 0 0 0 0 0 0 0 0 0 0 0 0 0 0 0 0 0 0 0 0 0 0 0 0 0 0 0 8 0 0 0 0 0 0 0 0 0 0 0 0 0 0 1 0 0 0 0 0 0 0 0 0 0 0 0 0 0 0 0 0 0 0 0 0 0 0 0 0 0 0 0 0 0 0 0 0 0 0 0 0 0 0 0 0 0 0 0 0 0 0 0 0 0 0 0 0 0 0 0 0 0 0 0 0 0 0 0 0 0 0 0 0 0 0 0 0 0 0 0 0 0 0 0 0 0 0 0 0 0 0 0 0 0 0 0 0 0 0 0 0 0 0 0 0 0 0 0 0 0 0 0 0 0 0 0 0 0 0 0 0 0 0 0 0 0 0 0 0 0 0 0 0 0 0 0 0 0 0 0 0 0 0 0 0 0 0 0 0 0 0 0 0 0 0 0 0 0 0 0 0 0 0 0 0 0 0 0 0 0 0 0 0 0 0 0 0 0 0 0 0 0 0 0 0 0 0 0 0 0 0 0 0 0 0 0 0 0 0 0 0 0 0 0 0 0 0 0 0 0 0 0 0 0 0 0 0 0 0 0 0 0 0 0 0 0 0 0 0 0 0 18 0 0 0 0 0 0 0 0 0 0 0 0 0 0 0 0 0 0 0 0 0 0 0 12 0 0 0 0 0 0 0 0 0 0 0 0 0 0 0 0 0 0 0 0 0 0 0 0 0 0 0 0 0 0 0 0 0 0 0 0 0 0 0 0 0 0 0 0 0 0 0 0 0 0 0 0 0 0 0 0 0 0 0 0 0 0 0 0 8 0 0 0 0 0 5 0 0 0 0 0 0 0 0 0 0 0 0 0 0 0 0 0 0 0 0 0 0 0 0 0 0 0 0 0 0 0 0 0 0 0 0 0 0 0 0 0 0 0 0 0 0 0 0 0 0 0 0 0 14 0 0 0 0 0 0 0 0 0 0 0 0 0 0 0 0 0 0 0 0 0 0 0 0 0 0 0 0 0 0 0 0 0 0 0 0 0 0 0 0 0 0 0 0 0 0 0 0 0 0 0 0 0 0 0 0 0 0 0 0 0 0 0 0 0 0 0 0 0 0 0 0 0 0 0 0 0 0 0 0 0 0 0 0 0 0 0 0 0 0 0 0 
Printing Sanity2
Heartbeat CPU 0 instructions: 60000001 cycles: 34685500 heartbeat IPC: 0.492515 cumulative IPC: 0.492515 (Simulation time: 0 hr 4 min 28 sec) 
Heartbeat CPU 0 instructions: 70000002 cycles: 49271639 heartbeat IPC: 0.685582 cumulative IPC: 0.573229 (Simulation time: 0 hr 5 min 25 sec) 
Heartbeat CPU 0 instructions: 80000003 cycles: 69311006 heartbeat IPC: 0.499018 cumulative IPC: 0.546155 (Simulation time: 0 hr 6 min 36 sec) 
Heartbeat CPU 0 instructions: 90000000 cycles: 84093639 heartbeat IPC: 0.676469 cumulative IPC: 0.573789 (Simulation time: 0 hr 7 min 33 sec) 
Heartbeat CPU 0 instructions: 100000000 cycles: 106761842 heartbeat IPC: 0.441147 cumulative IPC: 0.541241 (Simulation time: 0 hr 8 min 34 sec) 
*** Reached end of trace for Core: 0 Repeating trace: traces/spec2k17/client_001.champsimtrace.xz
Heartbeat CPU 0 instructions: 110000000 cycles: 125263224 heartbeat IPC: 0.5405 cumulative IPC: 0.541117 (Simulation time: 0 hr 9 min 34 sec) 
Heartbeat CPU 0 instructions: 120000002 cycles: 143755426 heartbeat IPC: 0.540769 cumulative IPC: 0.541068 (Simulation time: 0 hr 10 min 34 sec) 
Heartbeat CPU 0 instructions: 130000000 cycles: 159742599 heartbeat IPC: 0.625501 cumulative IPC: 0.550354 (Simulation time: 0 hr 11 min 32 sec) 
Heartbeat CPU 0 instructions: 140000000 cycles: 182102670 heartbeat IPC: 0.447226 cumulative IPC: 0.536605 (Simulation time: 0 hr 12 min 39 sec) 
Heartbeat CPU 0 instructions: 150000000 cycles: 196948858 heartbeat IPC: 0.673574 cumulative IPC: 0.547743 (Simulation time: 0 hr 13 min 37 sec) 
Heartbeat CPU 0 instructions: 160000000 cycles: 217904763 heartbeat IPC: 0.477192 cumulative IPC: 0.540479 (Simulation time: 0 hr 14 min 38 sec) 
Heartbeat CPU 0 instructions: 170000002 cycles: 232904381 heartbeat IPC: 0.666684 cumulative IPC: 0.549142 (Simulation time: 0 hr 15 min 38 sec) 
Heartbeat CPU 0 instructions: 180000002 cycles: 251462069 heartbeat IPC: 0.53886 cumulative IPC: 0.548337 (Simulation time: 0 hr 16 min 43 sec) 
Heartbeat CPU 0 instructions: 190000000 cycles: 267862215 heartbeat IPC: 0.609751 cumulative IPC: 0.55231 (Simulation time: 0 hr 17 min 39 sec) 
Heartbeat CPU 0 instructions: 200000000 cycles: 289452265 heartbeat IPC: 0.463176 cumulative IPC: 0.545314 (Simulation time: 0 hr 18 min 41 sec) 
*** Reached end of trace for Core: 0 Repeating trace: traces/spec2k17/client_001.champsimtrace.xz
Heartbeat CPU 0 instructions: 210000000 cycles: 308091720 heartbeat IPC: 0.536496 cumulative IPC: 0.544755 (Simulation time: 0 hr 19 min 41 sec) 
Heartbeat CPU 0 instructions: 220000000 cycles: 327199821 heartbeat IPC: 0.523338 cumulative IPC: 0.543447 (Simulation time: 0 hr 20 min 41 sec) 
Heartbeat CPU 0 instructions: 230000001 cycles: 341648052 heartbeat IPC: 0.692126 cumulative IPC: 0.550011 (Simulation time: 0 hr 21 min 37 sec) 
Heartbeat CPU 0 instructions: 240000001 cycles: 364429993 heartbeat IPC: 0.438944 cumulative IPC: 0.542782 (Simulation time: 0 hr 22 min 44 sec) 
Heartbeat CPU 0 instructions: 250000002 cycles: 380173363 heartbeat IPC: 0.635188 cumulative IPC: 0.546759 (Simulation time: 0 hr 23 min 41 sec) 
Finished CPU 0 instructions: 200000002 cycles: 365791801 cumulative IPC: 0.546759 (Simulation time: 0 hr 23 min 41 sec) 

ChampSim completed all CPUs

Region of Interest Statistics

CPU 0 cumulative IPC: 0.546759 instructions: 200000002 cycles: 365791801
ITLB TOTAL     ACCESS:   31530196  HIT:   31290713  MISS:     239483  HIT %:    99.2405  MISS %:   0.759535   MPKI: 1.19741
ITLB LOAD TRANSLATION ACCESS:   31530196  HIT:   31290713  MISS:     239483  HIT %:    99.2405  MISS %:   0.759535   MPKI: 1.19741
ITLB PREFETCH  REQUESTED:          0  ISSUED:          0  USEFUL:          0  USELESS:          0
ITLB USEFUL LOAD PREFETCHES:          0 PREFETCH ISSUED TO LOWER LEVEL:          0  ACCURACY: -nan
ITLB TIMELY PREFETCHES:          0 LATE PREFETCHES: 0 DROPPED PREFETCHES: 0
ITLB PREFETCHES SAME FILL-ORIGIN LEVEL: 0 DIFFERENT FILL-ORIGIN LEVEL: 0
ITLB AVERAGE MISS LATENCY: 10.3698 cycles
ITLB RQ	ACCESS:   37905485	FORWARD:          0	MERGED:    6329068	TO_CACHE:   31576417

DTLB TOTAL     ACCESS:   43968444  HIT:   42830248  MISS:    1138196  HIT %:    97.4113  MISS %:    2.58867   MPKI: 5.69098
DTLB LOAD TRANSLATION ACCESS:   43968444  HIT:   42830248  MISS:    1138196  HIT %:    97.4113  MISS %:    2.58867   MPKI: 5.69098
DTLB PREFETCH  REQUESTED:          0  ISSUED:          0  USEFUL:          0  USELESS:          0
DTLB USEFUL LOAD PREFETCHES:          0 PREFETCH ISSUED TO LOWER LEVEL:          0  ACCURACY: -nan
DTLB TIMELY PREFETCHES:          0 LATE PREFETCHES: 0 DROPPED PREFETCHES: 0
DTLB PREFETCHES SAME FILL-ORIGIN LEVEL: 0 DIFFERENT FILL-ORIGIN LEVEL: 0
DTLB AVERAGE MISS LATENCY: 10.0465 cycles
DTLB RQ	ACCESS:   53296335	FORWARD:          0	MERGED:    9261230	TO_CACHE:   44035105

STLB TOTAL     ACCESS:    1547702  HIT:    1531805  MISS:      15897  HIT %:    98.9729  MISS %:    1.02714   MPKI: 0.079485
STLB LOAD TRANSLATION ACCESS:    1377679  HIT:    1361782  MISS:      15897  HIT %:    98.8461  MISS %:     1.1539   MPKI: 0.079485
STLB TRANSLATION FROM L1D PREFETCHER ACCESS:     170023  HIT:     170023  MISS:          0  HIT %:        100  MISS %:          0   MPKI: 0
STLB PREFETCH  REQUESTED:          0  ISSUED:          0  USEFUL:          0  USELESS:          0
STLB USEFUL LOAD PREFETCHES:          0 PREFETCH ISSUED TO LOWER LEVEL:          0  ACCURACY: -nan
STLB TIMELY PREFETCHES:          0 LATE PREFETCHES: 0 DROPPED PREFETCHES: 0
STLB PREFETCHES SAME FILL-ORIGIN LEVEL: 0 DIFFERENT FILL-ORIGIN LEVEL: 0
STLB AVERAGE MISS LATENCY: 94.111 cycles
STLB RQ	ACCESS:    1626289	FORWARD:          0	MERGED:      78587	TO_CACHE:    1547702

STLB Hit, L1D data hit: 0
STLB Hit, L2C data hit: 0
STLB Hit, LLC data hit: 0
STLB Hit, LLC data miss: 0
STLB STLB hints to L2: 0
L1D TOTAL     ACCESS:   52891211  HIT:   50760984  MISS:    2130227  HIT %:    95.9724  MISS %:    4.02756   MPKI: 10.6511
L1D LOAD      ACCESS:   36416622  HIT:   34614128  MISS:    1802494  HIT %:    95.0504  MISS %:    4.94965   MPKI: 9.01247
L1D RFO       ACCESS:   16228742  HIT:   15983326  MISS:     245416  HIT %:    98.4878  MISS %:    1.51223   MPKI: 1.22708
L1D PREFETCH  ACCESS:     245847  HIT:     163530  MISS:      82317  HIT %:     66.517  MISS %:     33.483   MPKI: 0.411585
AGUS PREFETCH L1 MISS: 0
L1D PREFETCH  REQUESTED:     501317  ISSUED:     501317  USEFUL:       1613  USELESS:      80704
L1D USEFUL LOAD PREFETCHES:       1613 PREFETCH ISSUED TO LOWER LEVEL:      82721  ACCURACY: 1.94993
L1D TIMELY PREFETCHES:       1613 LATE PREFETCHES: 378 DROPPED PREFETCHES: 0
L1D PREFETCHES SAME FILL-ORIGIN LEVEL: 82721 DIFFERENT FILL-ORIGIN LEVEL: 0
L1D AVERAGE MISS LATENCY: 38312.9 cycles
L1D RQ	ACCESS:   52840822	FORWARD:          0	MERGED:   16042609	TO_CACHE:   36621548
L1D WQ	ACCESS:   16975108	FORWARD:     176786	MERGED:     300321	TO_CACHE:   16674787
L1D PQ	ACCESS:     252707	FORWARD:          0	MERGED:       3976	TO_CACHE:     248610

L1D UNIQUE REGIONS ACCESSED: 0
L1D REGIONS CONFLICTS: 0
L1D Cross Page Prefetch Requests: 3482
L1D Same Page Prefetch Requests: 249225
L1D ROI Sum of L1D PQ occupancy: 3057957
L1D PREFETCHES PUSHED FROM L2C: 0
L1I TOTAL     ACCESS:   37387247  HIT:   36191290  MISS:    1195957  HIT %:    96.8012  MISS %:    3.19884   MPKI: 5.97978
L1I LOAD      ACCESS:   37387247  HIT:   36191290  MISS:    1195957  HIT %:    96.8012  MISS %:    3.19884   MPKI: 5.97978
L1I PREFETCH  REQUESTED:          0  ISSUED:          0  USEFUL:          0  USELESS:          0
L1I USEFUL LOAD PREFETCHES:          0 PREFETCH ISSUED TO LOWER LEVEL:          0  ACCURACY: -nan
L1I TIMELY PREFETCHES:          0 LATE PREFETCHES: 0 DROPPED PREFETCHES: 0
L1I PREFETCHES SAME FILL-ORIGIN LEVEL: 0 DIFFERENT FILL-ORIGIN LEVEL: 0
L1I AVERAGE MISS LATENCY: 20.3048 cycles
L1I RQ	ACCESS:   57421926	FORWARD:          0	MERGED:   19516441	TO_CACHE:   37905485

BTB TOTAL     ACCESS:   27458437  HIT:   25555237  MISS:    1903200  HIT %:    93.0688  MISS %:     6.9312   MPKI: 9.516
BTB BRANCH_DIRECT_JUMP	ACCESS:    1694154  HIT:    1685629  MISS:       8525
BTB BRANCH_INDIRECT	ACCESS:    6802149  HIT:    5941476  MISS:     860673
BTB BRANCH_CONDITIONAL	ACCESS:   13299545  HIT:   13284175  MISS:      15370
BTB BRANCH_DIRECT_CALL	ACCESS:    1985283  HIT:    1973782  MISS:      11501
BTB BRANCH_INDIRECT_CALL	ACCESS:     845555  HIT:     614784  MISS:     230771
BTB BRANCH_RETURN	ACCESS:    2831751  HIT:    2055391  MISS:     776360
BTB BRANCH_OTHER ACCESS:          0  HIT:          0  MISS:          0

L2C TOTAL     ACCESS:    3931754  HIT:    2869385  MISS:    1062369  HIT %:    72.9798  MISS %:    27.0202   MPKI: 5.31184
L2C LOAD      ACCESS:    2998060  HIT:    2114078  MISS:     883982  HIT %:    70.5149  MISS %:    29.4851   MPKI: 4.41991
L2C DATA LOAD MPKI: 4.04968
L2C INSTRUCTION LOAD MPKI: 0.37023
L2C RFO       ACCESS:     245390  HIT:      84416  MISS:     160974  HIT %:    34.4007  MISS %:    65.5993   MPKI: 0.80487
L2C PREFETCH  ACCESS:      82721  HIT:      79187  MISS:       3534  HIT %:    95.7278  MISS %:    4.27219   MPKI: 0.01767
AGUS PREFETCH L1 MISS: 0
L2C DATA PREFETCH MPKI: 0.01767
L2C INSTRUCTION PREFETCH MPKI: 0
L2C WRITEBACK ACCESS:     588830  HIT:     581960  MISS:       6870  HIT %:    98.8333  MISS %:    1.16672   MPKI: 0.03435
L2C LOAD TRANSLATION ACCESS:      16753  HIT:       9744  MISS:       7009  HIT %:    58.1627  MISS %:    41.8373   MPKI: 0.035045
L2C PREFETCH  REQUESTED:          0  ISSUED:          0  USEFUL:        193  USELESS:       3341
L2C USEFUL LOAD PREFETCHES:        193 PREFETCH ISSUED TO LOWER LEVEL:       3534  ACCURACY: 5.46123
L2C TIMELY PREFETCHES:        193 LATE PREFETCHES: 0 DROPPED PREFETCHES: 0
L2C PREFETCHES SAME FILL-ORIGIN LEVEL: 0 DIFFERENT FILL-ORIGIN LEVEL: 0
L2C AVERAGE MISS LATENCY: 106.097 cycles
L2C RQ	ACCESS:    3260216	FORWARD:          0	MERGED:          0	TO_CACHE:    3260203
L2C WQ	ACCESS:     588831	FORWARD:         13	MERGED:          0	TO_CACHE:     588831
L2C PQ	ACCESS:      82721	FORWARD:          0	MERGED:          0	TO_CACHE:      82721

L2C Instructions Evicting Data 65032
L2C Translations Evicting Data 6212
L2C Data Evicting Data 905806
L2C Instructions Evicting Instructions 8248
L2C Translations Evicting Instructions 715
L2C Data Evicting Instructions 62500
L2C Instructions Evicting Translations 766
L2C Translations Evicting Translations 82
L2C Data Evicting Translations 6138
L2C Dense regions hint from L2: 0
PSCL5 TOTAL     ACCESS:      15897  HIT:      15897  MISS:          0  HIT %:        100  MISS %:          0   MPKI: 0
PSCL5 LOAD TRANSLATION ACCESS:      15897  HIT:      15897  MISS:          0  HIT %:        100  MISS %:          0   MPKI: 0
PSCL5 PREFETCH  REQUESTED:          0  ISSUED:          0  USEFUL:          0  USELESS:          0
PSCL5 USEFUL LOAD PREFETCHES:          0 PREFETCH ISSUED TO LOWER LEVEL:          0  ACCURACY: -nan
PSCL5 TIMELY PREFETCHES:          0 LATE PREFETCHES: 0 DROPPED PREFETCHES: 0
PSCL5 PREFETCHES SAME FILL-ORIGIN LEVEL: 0 DIFFERENT FILL-ORIGIN LEVEL: 0

PSCL4 TOTAL     ACCESS:      15763  HIT:      15753  MISS:         10  HIT %:    99.9366  MISS %:  0.0634397   MPKI: 5e-05
PSCL4 LOAD TRANSLATION ACCESS:      15763  HIT:      15753  MISS:         10  HIT %:    99.9366  MISS %:  0.0634397   MPKI: 5e-05
PSCL4 PREFETCH  REQUESTED:          0  ISSUED:          0  USEFUL:          0  USELESS:          0
PSCL4 USEFUL LOAD PREFETCHES:          0 PREFETCH ISSUED TO LOWER LEVEL:          0  ACCURACY: -nan
PSCL4 TIMELY PREFETCHES:          0 LATE PREFETCHES: 0 DROPPED PREFETCHES: 0
PSCL4 PREFETCHES SAME FILL-ORIGIN LEVEL: 0 DIFFERENT FILL-ORIGIN LEVEL: 0

PSCL3 TOTAL     ACCESS:      15671  HIT:      15638  MISS:         33  HIT %:    99.7894  MISS %:    0.21058   MPKI: 0.000165
PSCL3 LOAD TRANSLATION ACCESS:      15671  HIT:      15638  MISS:         33  HIT %:    99.7894  MISS %:    0.21058   MPKI: 0.000165
PSCL3 PREFETCH  REQUESTED:          0  ISSUED:          0  USEFUL:          0  USELESS:          0
PSCL3 USEFUL LOAD PREFETCHES:          0 PREFETCH ISSUED TO LOWER LEVEL:          0  ACCURACY: -nan
PSCL3 TIMELY PREFETCHES:          0 LATE PREFETCHES: 0 DROPPED PREFETCHES: 0
PSCL3 PREFETCHES SAME FILL-ORIGIN LEVEL: 0 DIFFERENT FILL-ORIGIN LEVEL: 0

PSCL2 TOTAL     ACCESS:      15897  HIT:      15079  MISS:        818  HIT %:    94.8544  MISS %:    5.14562   MPKI: 0.00409
PSCL2 LOAD TRANSLATION ACCESS:      15897  HIT:      15079  MISS:        818  HIT %:    94.8544  MISS %:    5.14562   MPKI: 0.00409
PSCL2 PREFETCH  REQUESTED:          0  ISSUED:          0  USEFUL:          0  USELESS:          0
PSCL2 USEFUL LOAD PREFETCHES:          0 PREFETCH ISSUED TO LOWER LEVEL:          0  ACCURACY: -nan
PSCL2 TIMELY PREFETCHES:          0 LATE PREFETCHES: 0 DROPPED PREFETCHES: 0
PSCL2 PREFETCHES SAME FILL-ORIGIN LEVEL: 0 DIFFERENT FILL-ORIGIN LEVEL: 0

LLC TOTAL     ACCESS:    1428120  HIT:     924898  MISS:     503222  HIT %:    64.7633  MISS %:    35.2367   MPKI: 2.51611
LLC LOAD      ACCESS:     883982  HIT:     545854  MISS:     338128  HIT %:    61.7494  MISS %:    38.2506   MPKI: 1.69064
LLC RFO       ACCESS:     160974  HIT:      24849  MISS:     136125  HIT %:    15.4367  MISS %:    84.5633   MPKI: 0.680625
LLC PREFETCH  ACCESS:       3534  HIT:       2977  MISS:        557  HIT %:    84.2388  MISS %:    15.7612   MPKI: 0.002785
AGUS PREFETCH L1 MISS: 0
LLC WRITEBACK ACCESS:     372621  HIT:     349014  MISS:      23607  HIT %:    93.6646  MISS %:    6.33539   MPKI: 0.118035
LLC LOAD TRANSLATION ACCESS:       7009  HIT:       2204  MISS:       4805  HIT %:    31.4453  MISS %:    68.5547   MPKI: 0.024025
LLC PREFETCH  REQUESTED:          0  ISSUED:          0  USEFUL:         39  USELESS:        417
LLC USEFUL LOAD PREFETCHES:         39 PREFETCH ISSUED TO LOWER LEVEL:        557  ACCURACY: 7.0018
LLC TIMELY PREFETCHES:         39 LATE PREFETCHES: 0 DROPPED PREFETCHES: 0
LLC PREFETCHES SAME FILL-ORIGIN LEVEL: 0 DIFFERENT FILL-ORIGIN LEVEL: 0
LLC AVERAGE MISS LATENCY: 160.986 cycles
LLC RQ	ACCESS:    1051965	FORWARD:          0	MERGED:          0	TO_CACHE:    1051965
LLC WQ	ACCESS:     372622	FORWARD:          0	MERGED:          0	TO_CACHE:     372622
LLC PQ	ACCESS:       3534	FORWARD:          0	MERGED:          0	TO_CACHE:       3534

LLC Dense regions hint to LLC: 0

RAW hits: 2600855
Loads Generated: 55441678
Loads sent to L1D: 52840822
Stores Generated: 16975122
Stores sent to L1D: 16975108
Major fault: 0 Minor fault: 3509
Allocated PAGES: 3509
ucb ended
-----------------------------------------------------------------------------------------------------------------------------------------------------------------------------------------------------
Offsets elements: -1 8 -9576174 -2 2 9576159 10 -17 -9576169 9576152 -7 -9576162 9576145 -9576161 9576151 -9 7 -8 1 -9576149 9576132 -9576144 9576125 -9576139 9576129 -9576127 9576120 -9576122 9576112 9 -9576121 9576102 -9576107 9576097 -9576104 9576096 -9576099 9576080 -9576091 9576072 -9576084 9576065 -9576072 -9576067 9576057 -9576062 9576045 -10 -9576056 9576037 -9576051 9576041 -9576029 9576020 9576012 -9576027 9576021 -9576017 9576010 -9576012 9576002 -9576007 9575990 -9575997 9575987 -9575989 9575972 -9575984 9575967 -9575976 9575957 -9575972 9575966 -9575962 9575955 -9575957 9575947 -9575952 9575935 -9575942 9575932 -9575941 9575931 -9575919 9575910 -9575921 9575902 -9575917 9575911 -9575907 9575900 -9575902 9575892 -9575897 9575880 -9575887 9575877 -9575886 9575876 -9575864 9575855 9575847 9575854 -9575852 9575845 -9575847 9575837 -9575842 9575825 -9575832 9575822 -9575831 9575821 -9575809 9575800 -9575811 9575792 -9575807 9575801 -9575797 9575790 -9575792 9575782 -9575777 9575767 -9575776 9575757 -9575764 9575747 -9575754 9575737 9575744 -9575742 9575735 -9575737 9575727 -9575732 9575715 -9575722 9575712 -9575721 9575711 -9575699 9575690 -9575701 9575682 -9575697 9575691 -9575687 9575680 -9575682 9575672 -9575677 9575660 -9575659 9575642 -9575649 9575632 -9575644 9575625 -9575632 -9575627 9575617 -9575622 9575605 -9575612 9575602 -9575604 9575587 -9575599 9575582 -9575591 9575572 -9575589 9575579 -9575577 9575570 -9575572 9575562 -9575567 9575550 -9575557 9575547 -9575556 9575546 -9575534 9575525 9575517 9575524 -9575524 9575507 -9575522 9575515 -9575517 9575500 -9575502 9575492 -9575509 9575490 -9575504 9575487 -9575501 9575491 -9575491 9575472 -9575479 9575462 9575469 -9575467 9575460 -9575462 9575452 -9575454 9575437 -9575449 9575430 -9575446 9575436 -9575429 9575412 -9575424 9575407 9575414 -9575412 9575405 -9575407 9575397 -9575402 9575385 -9575399 9575382 -9575392 9575375 -9575391 9575381 -9575366 9575357 -9575371 9575352 -9575369 9575359 -9575357 9575350 -9575352 9575342 -9575344 9575327 -9575334 9575326 -9575324 9575307 -9575319 9575300 -9575312 9575306 -9575302 9575295 -9575297 9575287 -9575294 9575275 -9575282 9575272 -9575281 9575271 -9575259 9575250 -9575261 9575242 -9575257 9575251 -9575247 9575240 -9575242 9575232 -9575237 9575220 -9575227 9575217 -9575226 9575216 -9575209 9575192 -9575204 9575185 636897 -636663 -251 -1398343 2034876 -2034858 2084539 -2084539 2037971 -3113 49681 -49304 37224 -329 326 12083 -40954 -8373 37247 -645265 228 -228 645264 -2056633 2056633 -8368 37242 -10409650 10368696 -645264 636537 -636535 686216 -686217 -1398322 -8325111 8325110 2034890 -2034889 2034858 -636533 686214 -48140 -638074 11 636874 23 -636911 248 -1398594 18 1398325 636505 -636512 -9752100 1050343 -1021681 9723445 636904 2035239 -636904 -8325003 9723348 -8701754 8701764 -8701764 8701765 -9606281 9606294 -8683941 -1055466 16036 10366672 -9327243 8683929 -8683927 8683935 -8683987 -1062584 9746563 13 -9739407 1055465 5 -8683992 7169 -8683901 -1062669 9746562 -9739406 16035 10360262 -1398584 1398505 -147 636525 -636525 639638 46568 -49681 -28871 49327 -12080 40954 -685990 -229 645265 -2056632 2048265 -636537 -686207 636556 -31 1541 -638076 686215 -10268018 9581803 -9581801 25 -141569 3 -9723351 1039429 1037629 -904516 905580 8700701 -8700701 8700714 -9739129 162184 10213437 -10213436 10213835 -9581934 4857 9576922 -9581782 -146426 10366671 -9344015 -1064 -9606282 9606295 -8683939 -1055468 1039432 -17839 -1021593 9723358 -117076 141569 9581802 -8683932 -1039439 1021593 -9581789 117076 1039434 -1055470 1055469 8683925 -8683925 8683933 -8683934 19 6 -1062666 9739393 -5 -8683929 8683934 1055500 1039433 -9723358 1039437 -9581802 897864 -8683891 -30 -8683896 -1062673 7168 -23203 164772 -8683921 -9606292 -139600 1061959 -9606288 -139604 -8683920 8683928 -1062646 1044798 -9606293 -132774 162122 -10213836 9577173 -1398333 1398336 9723520 -9577094 9577077 -9723502 141567 10225104 -10249594 9606280 -9606279 9606287 -8683894 -1062675 9746561 -9576932 -29350 10242787 -636492 -9606297 -132770 162123 -4859 4858 117074 -117073 -10249599 9606285 -9606291 922383 -1062662 9723371 -9723371 -1037628 10359863 -9576945 893043 -897901 880024 -9739393 133111 -9576944 1039440 -897872 10225103 -10382708 1039441 -1039441 9338270 -636505 -8701765 8701778 -9606295 904516 -1037418 15826 -904517 904515 8701767 -8701766 8701774 -9628799 9628791 -9746534 -16406 10399463 -636524 -9723444 10409649 -686204 -254 -1398340 241 -8325000 9723340 -9723345 636514 121 -636635 -9723348 9581776 623783 12734 -10358924 10359323 -9581935 -140629 9722406 -9581779 145485 -146421 10359860 -10359860 146421 10213838 6410 -10366669 9723596 1398332 173 -9581936 -141564 9723345 623781 -10346189 10358924 -10218295 9581780 -9576924 936 -12734 19544 -10225105 -140628 140629 -636515 10347126 -10346190 -12735 -145485 -936 -10213439 -4856 -141565 10366669 9581781 9581779 -9723347 9723347 9723344 -9723342 9723355 -11 -9762929 9762929 -9762934 9762933 636533 -927025 -110588 1037614 9606275 -9723438 1021678 8701761 995398 8727953 14 -9752114 51200 -22538 10360349 -9723349 9723597 9723346 -9700897 9700906 -9700906 9700907 -117065 643314 -643306 -9616851 -122524 122525 932863 122551 9616843 -9616843 -9616842 9616850 -9616855 86 -1062670 -7168 -9723599 -169 152 -9723503 106515 -9581791 -35050 9616849 38487 9606306 -8700716 -1038413 162192 10213429 -10213429 10213828 -8178581 9576914 172 -152 1022655 -881089 4868 -123983 -22450 9723357 10249607 -643301 -9616853 -122527 16009 106517 -84066 -22451 9581804 -9616847 -106525 22451 -141567 117065 106519 -122528 122528 9616839 -9616839 9616844 -9616849 932934 -9616844 106522 -35048 -932944 -9616835 -9746569 122554 -9723366 106523 -9581799 -24505 -10539 10532 -139586 -625 129670 122555 -922310 -140274 -6490 129045 -9616834 9616842 -139597 44977 94614 -9739067 162130 399 -10213827 9577165 -9577165 8178581 -8325015 141565 10225106 -10249601 -9606286 -117748 7155 16021 -29369 10242798 -9576937 -29365 -117069 -15696 132765 9606289 146435 -146434 117069 9606296 -9581805 -9327218 -1062658 -10242798 117066 -132763 162131 -10249606 9606292 117068 9606298 -9628803 -117744 -10242799 9606307 117062 -132758 -10249610 9606303 9746574 -10375898 133099 117060 24507 -157263 -10249613 9606299 9723366 117061 -94610 -29370 10242799 106528 932930 -1055467 -7195 162469 -146433 141566 -119116 -10337412 9700920 -9606307 -94615 -38267 15818 117064 9606302 10218314 -10337432 9700909 686204 -10387112 10337812 -10253735 -129679 -15980 39045 2035257 -2035239 1398335 -8324998 9723338 -9723343 10359862 -10359983 9581778 623784 -10346182 10358917 -10359316 9722653 -9722653 9722398 -1398330 -173 156 -9722557 -4866 -141560 10359858 -10360257 146426 9577168 -9723594 10366667 -2041657 -156 9723343 -9581783 9581783 -9722402 -10200697 10347124 -10205564 -140619 -10225107 4866 -941 -10346183 141560 10220241 -6809 -10359858 10200698 10218298 -10358917 9722402 643324 -19543 -10205563 -10213432 -10365726 10225107 -643324 -9581781 -9723353 9723342 -4 -9762480 9762483 -6 636534 -10359881 -686191 9606288 -9700901 -9700902 94615 -117151 87 8727967 -10337813 -51199 135276 -84070 -38466 15922 -9700891 9700901 9700902 -9606306 9606319 -122541 106532 9616826 106533 9616833 643301 -9327293 122568 -9616826 -9616825 -9616837 9616832 1055501 -9581794 -35030 38492 9606320 -8700718 -1038411 162197 10213424 -10213424 9576909 636914 1022653 8700867 -9577081 145 117050 -9581807 10225108 -10260137 -122544 106535 -84079 -22456 -117051 141564 9581807 22456 84086 9616817 117051 106537 9616822 -9616822 -9739380 9739375 -9739375 122548 932917 -9616827 106536 106540 -35028 -9616818 -9616830 -9616815 10497 -10508 -8683899 -922421 -140256 -164715 624 129063 -9606311 -139582 122572 -9616817 9616825 -9606308 -139584 44982 -9606313 -132754 162135 -10213423 10213822 -10213823 9577160 -9606294 -117057 162 9576927 132 117057 24505 10225109 -10272096 -117752 -24513 29388 117055 -9739055 132753 -117056 -9628795 162461 -146439 141563 -10225108 -119108 -9576919 -29388 10242812 -9606318 -132750 162137 -4877 4876 -10249619 -9606304 9606312 -51871 22483 -9746547 162460 117048 9606310 -15697 132746 9606317 141562 -9327200 -10242813 9606321 -9606320 -132743 132744 29393 -9327214 106551 -122560 162448 -146438 -10344216 -10337407 -9700915 94594 -117050 -94595 119109 636523 -10337427 9700903 -49300 -10337807 -38273 122362 -129695 -15987 39051 9723686 -8324995 9723337 -10346177 10358912 -10359311 9722648 -9722648 9722393 -9722552 -4873 -141555 10359855 -10360254 146428 9577163 -9723591 10366664 -9723339 -9581786 9581786 -9722397 -10200692 -146428 10347121 -10205566 -140612 -10225110 4874 -943 -9581785 4873 -10346178 -10218300 -141554 10213427 -10213427 10200693 -10347120 -10358912 -10365721 -9581784 9581784 -141563 -9723350 9723339 -9762486 9762489 -10387105 20 -9606321 -9723445 9723438 -22454 -9700910 -51204 135293 -84082 -38471 15923 10360348 -9700886 9700896 -9700896 9700897 -9606331 -10421 -122628 106619 9616739 106620 9616746 122655 -9616739 -9616737 9616745 -9616750 -7170 -10360262 9723599 -9581796 -34941 38497 9606331 -8700719 -1038410 162202 10213419 -10213818 9577155 1022651 8700852 -9577059 -22460 -24521 10249632 -10260050 9616736 -9616736 9616749 -9739379 16008 106622 -84161 -22461 -117040 9581809 -9616742 -106629 22461 -141562 117039 9606332 -9616743 -122634 122634 932830 -9616735 9616735 9616744 106623 106627 -34939 -932840 -9616731 122668 -117035 -9606329 24525 -139568 -623 623 129150 122659 9616738 1055415 -922335 -140249 -6491 44988 -9606319 -9606327 -132741 162141 -10213418 10213817 -9581942 4883 -146444 117043 -117042 -10249629 9606315 -9628780 -117766 7154 -24523 29405 117041 132739 146445 22460 -9576914 -4883 10225111 -10249633 10242824 94568 22469 9606322 324 15697 10225110 -9606333 -3 117034 9606324 -9576926 -9581797 -922433 -9606336 -140238 932825 -1039458 -16008 162452 -169648 10375898 -10218301 4882 141561 -10260040 -84171 -10337402 94578 -117039 -94579 119102 -10337422 -10376080 38278 84171 -129781 -15993 39057 9723685 -8324993 9723333 -10346172 10358907 -10359306 9722643 -9722643 9722388 -9722547 -4881 -141550 146431 10220231 -10359853 10360252 -9723337 -155 -9722392 10346173 -10205569 10218303 -10200687 -146431 10359853 -10358907 9722392 -9576907 10347119 -140604 -10225112 4881 -946 -9581788 -10346173 -10218303 10366662 9581788 -9723344 -9762491 9762494 -10387100 -9606332 9606313 9723437 -22459 -10337802 -51210 135381 -122639 38496 -22574 9723444 -9700860 9700869 -9700870 9700870 9606349 -9616673 -122705 16007 106698 9616660 106699 9616667 122734 -9616660 -9616659 -9616671 9616666 -34859 38524 9700871 -8700721 -1038408 162207 10213414 -10213813 9577150 1022650 8700853 -9577054 -123961 -22486 -24538 10249651 -9616670 -122708 106701 -84213 -22487 -9606337 -117021 141559 9581812 -9616663 -106707 22488 -9739378 122709 -106703 106702 9616656 -9616656 -9616661 -122712 122712 932757 -1062660 -34857 -9616652 -13 -9606348 922442 -932755 10306 922361 -1062582 -164087 -619 129849 -9616664 -932677 922352 8683987 -9746571 122743 -129912 122746 -129238 -9616651 9616659 -139558 129230 -9606334 -139560 45016 9606350 -9606339 -132729 162146 -10213413 10213812 -9577150 -146449 117032 8207983 141557 10225114 -10249640 9606326 -9606325 9606333 22487 4890 -29428 10242842 117029 9606329 -9606328 9606336 -9739063 162147 -10249641 -94543 72096 9628774 123962 -10242842 -9746542 140203 -133046 132725 -117028 146449 141558 -10366672 117025 922429 10225113 -10249647 117026 9606340 -9576909 -9576922 117022 -22455 22454 -23176 133045 9606342 -9576921 -146450 119072 9581799 -4891 -10249652 10242843 -8683886 -1039472 -9746574 133053 -117018 132716 24540 4891 -22488 -4890 10218304 -10242843 9606351 -122719 162456 -146448 -10344184 -9606338 -122717 106710 -106710 -119072 -10337375 9700884 -9700883 94532 -117020 -94534 119073 -10337395 38304 84225 -129858 -16001 39062 -8324990 9723332 -10346167 10358902 -10359301 9722638 -9722638 9722383 -9722542 -4888 -141545 10359850 -10360249 146433 9577153 -9723586 10366659 -9723334 9723335 9581791 -9722387 -10200682 10347116 -10205571 -140597 -10225115 4889 -948 -9581790 4888 -10346168 -10218305 -141544 10213417 -10213417 10200683 -10347115 -10220226 6809 141544 9581789 -141558 9723334 -9762496 9762499 -10292542 -9700885 -84223 -38495 38494 9700865 636911 -10243242 -86 995484 -9700879 -51236 51393 -22729 -9700705 9700714 -9700715 9700715 1022649 8700722 -9628989 -110379 110380 944996 110418 9628976 -9628976 -9628975 9628983 -9628988 94382 -47173 9628982 38679 9700716 -8700709 -8700725 -1038404 162214 10213407 -10213805 9577142 -9577064 9576892 155 -9581947 9581795 1022646 -876190 -123813 -22641 -8700710 9344024 -9628986 -110382 15997 94384 -71741 -22642 -1022648 9581814 -9628979 -94391 22643 -9628985 -94386 -9628972 9628972 -9739355 9739363 -9628980 -9739363 110386 -9628982 945073 -945066 945069 -7092 23127 94386 94389 9628977 -47171 -945077 -9628968 110425 -24543 -22607 22604 -139539 -599 598 116915 -9606350 -139544 116914 110422 944993 8683979 -944988 -117596 9739402 9739394 9628985 -110427 110430 -117521 45770 8700723 -9606355 -132713 162153 -10213406 10213805 -10213806 9577143 117016 9606343 9576910 141555 10225116 -10249655 -22449 22642 4899 876192 9337215 117013 9606345 -9606344 -117014 -9739068 123814 -146456 22641 -9576902 -881092 -10249658 10242849 117011 922461 8683886 -9739056 132710 -117012 9739401 -9700728 -22643 -9576901 1022647 -881091 -9581815 -10272278 945064 -1055455 -7207 -141557 94394 -94394 -118914 -9628964 -110404 162453 -10213407 94406 52051 -123814 881091 9344025 -110393 94396 9628962 94397 9628969 -9581814 897822 110432 -9628962 -9628961 945060 8683915 -944982 -117601 110687 -117824 7153 38662 -10337220 9700729 1000004 -1022647 -8700711 -1000006 118916 -10337240 -10376078 38457 71892 -117711 -15986 39078 -8324988 9723328 10205572 -10346159 10358894 -10359293 9722630 -9722630 9722375 -9722534 -4899 -141540 10359848 -10360247 146439 9577145 -9723584 10366657 -9723332 -9581793 9581793 -9722379 -10200674 
Potential of Offsets elements: 1052.11 288.371 28.3713 662.371 532.371 28.3713 588.371 109.371 28.3713 28.3713 390.371 28.3713 28.3713 28.3713 28.3713 195.371 160.371 159.371 863.371 28.3713 28.3713 28.3713 28.3713 28.3713 28.3713 28.3713 28.3713 28.3713 28.3713 125.371 28.3713 28.3713 28.3713 28.3713 28.3713 28.3713 28.3713 28.3713 28.3713 28.3713 28.3713 28.3713 28.3713 28.3713 28.3713 28.3713 28.3713 492.371 28.3713 28.3713 28.3713 28.3713 28.3713 28.3713 28.3713 28.3713 28.3713 28.3713 28.3713 28.3713 28.3713 28.3713 28.3713 28.3713 28.3713 28.3713 28.3713 28.3713 28.3713 28.3713 28.3713 28.3713 28.3713 28.3713 28.3713 28.3713 28.3713 28.3713 28.3713 28.3713 28.3713 28.3713 28.3713 28.3713 28.3713 28.3713 28.3713 28.3713 28.3713 28.3713 28.3713 28.3713 28.3713 28.3713 28.3713 28.3713 28.3713 28.3713 28.3713 28.3713 28.3713 28.3713 28.3713 28.3713 28.3713 28.3713 28.3713 28.3713 28.3713 28.3713 28.3713 28.3713 28.3713 28.3713 28.3713 28.3713 28.3713 28.3713 28.3713 28.3713 28.3713 28.3713 28.3713 28.3713 28.3713 28.3713 28.3713 28.3713 28.3713 28.3713 28.3713 28.3713 28.3713 28.3713 28.3713 28.3713 28.3713 28.3713 28.3713 28.3713 28.3713 28.3713 28.3713 28.3713 28.3713 28.3713 28.3713 28.3713 28.3713 28.3713 28.3713 28.3713 28.3713 28.3713 28.3713 28.3713 28.3713 28.3713 28.3713 28.3713 28.3713 28.3713 28.3713 28.3713 28.3713 28.3713 28.3713 28.3713 28.3713 28.3713 28.3713 28.3713 28.3713 28.3713 28.3713 28.3713 28.3713 28.3713 28.3713 28.3713 28.3713 28.3713 28.3713 28.3713 28.3713 28.3713 28.3713 28.3713 28.3713 28.3713 28.3713 28.3713 28.3713 28.3713 28.3713 28.3713 28.3713 28.3713 28.3713 28.3713 28.3713 28.3713 28.3713 28.3713 28.3713 28.3713 28.3713 28.3713 28.3713 28.3713 28.3713 28.3713 28.3713 28.3713 28.3713 28.3713 28.3713 28.3713 28.3713 28.3713 28.3713 28.3713 28.3713 28.3713 28.3713 28.3713 28.3713 28.3713 28.3713 28.3713 28.3713 28.3713 28.3713 28.3713 28.3713 28.3713 28.3713 28.3713 28.3713 28.3713 28.3713 28.3713 28.3713 28.3713 28.3713 28.3713 28.3713 28.3713 28.3713 28.3713 28.3713 28.3713 28.3713 28.3713 28.3713 28.3713 28.3713 28.3713 28.3713 28.3713 28.3713 28.3713 28.3713 28.3713 28.3713 28.3713 28.3713 28.3713 28.3713 28.3713 28.3713 28.3713 28.3713 28.3713 28.3713 28.3713 28.3713 28.3713 28.3713 28.3713 28.3713 28.3713 28.3713 28.3713 28.3713 36.3713 197.371 325.371 349.371 29.3713 64.3713 28.3713 28.3713 28.3713 28.3713 29.3713 28.3713 28.3713 28.3713 28.3713 28.3713 28.3713 28.3713 28.3713 28.3713 124.371 183.371 28.3713 28.3713 28.3713 28.3713 28.3713 28.3713 28.3713 28.3713 43.3713 38.3713 34.3713 28.3713 41.3713 28.3713 28.3713 28.3713 28.3713 56.3713 56.3713 64.3713 28.3713 28.3713 249.371 28.3713 570.371 37.3713 187.371 28.3713 547.371 28.3713 710.371 118.371 28.3713 28.3713 28.3713 28.3713 119.371 28.3713 208.371 28.3713 28.3713 28.3713 28.3713 28.3713 28.3713 28.3713 28.3713 28.3713 28.3713 28.3713 28.3713 28.3713 28.3713 28.3713 28.3713 28.3713 28.3713 28.3713 819.371 28.3713 28.3713 212.371 28.3713 28.3713 28.3713 28.3713 28.3713 28.3713 28.3713 28.3713 58.3713 53.3713 34.3713 49.3713 28.3713 28.3713 28.3713 37.3713 28.3713 28.3713 28.3713 28.3713 28.3713 28.3713 28.3713 28.3713 28.3713 30.3713 28.3713 28.3713 30.3713 28.3713 28.3713 52.3713 28.3713 28.3713 28.3713 72.3713 28.3713 486.371 34.3713 28.3713 28.3713 28.3713 28.3713 28.3713 28.3713 28.3713 28.3713 28.3713 28.3713 28.3713 28.3713 28.3713 28.3713 28.3713 28.3713 28.3713 28.3713 28.3713 28.3713 28.3713 28.3713 28.3713 28.3713 28.3713 28.3713 28.3713 28.3713 28.3713 28.3713 28.3713 28.3713 28.3713 28.3713 28.3713 28.3713 28.3713 28.3713 28.3713 28.3713 28.3713 28.3713 28.3713 168.371 735.371 28.3713 287.371 495.473 28.3713 28.3713 28.3713 28.3713 28.3713 28.3713 28.3713 28.3713 74.3713 112.371 28.3713 28.3713 28.3713 28.3713 28.3713 28.3713 28.3713 28.3713 28.3713 28.3713 28.3713 28.3713 28.3713 28.3713 28.3713 28.3713 28.3713 28.3713 28.3713 28.3713 276.371 68.3713 28.3713 28.3713 28.3713 28.3713 28.3713 28.3713 28.3713 28.3713 28.3713 28.3713 32.3713 28.3713 28.3713 28.3713 28.3713 28.3713 373.371 28.3713 28.3713 28.3713 28.3713 28.3713 28.3713 28.3713 28.3713 28.3713 28.3713 28.3713 36.3713 160.371 316.371 28.3713 28.3713 28.3713 28.3713 28.3713 28.3713 85.3713 28.3713 28.3713 28.3713 28.3713 28.3713 118.371 28.3713 28.3713 28.3713 593.371 28.3713 28.3713 28.3713 28.3713 28.3713 28.3713 28.3713 28.3713 28.3713 28.3713 28.3713 28.3713 28.3713 77.3713 28.3713 28.3713 37.3713 28.3713 28.3713 140.371 40.3713 38.3713 298.371 28.3713 28.3713 28.3713 88.3713 32.3713 92.3713 28.3713 28.3713 172.371 204.371 28.3713 28.3713 28.3713 28.3713 28.3713 28.3713 722.371 28.3713 28.3713 28.3713 28.3713 28.3713 30.3713 28.3713 28.3713 36.3713 30.3713 28.3713 46.3713 213.371 270.371 28.3713 28.3713 28.3713 28.3713 28.3713 28.3713 147.371 42.3713 28.3713 28.3713 28.3713 304.371 33.3713 28.3713 248.371 316.371 28.3713 28.3713 28.3713 28.3713 28.3713 28.3713 28.3713 31.3713 47.3713 28.3713 28.3713 67.3713 193.371 28.3713 28.3713 28.3713 28.3713 180.371 28.3713 28.3713 28.3713 28.3713 48.3713 28.3713 28.3713 32.3713 40.3713 368.371 28.3713 28.3713 28.3713 28.3713 130.371 28.3713 28.3713 28.3713 28.3713 28.3713 28.3713 28.3713 28.3713 28.3713 28.3713 28.3713 28.3713 28.3713 28.3713 28.3713 28.3713 28.3713 28.3713 28.3713 28.3713 28.3713 28.3713 28.3713 28.3713 28.3713 28.3713 28.3713 28.3713 28.3713 28.3713 28.3713 28.3713 28.3713 28.3713 28.3713 28.3713 28.3713 28.3713 28.3713 28.3713 28.3713 61.3713 28.3713 28.3713 28.3713 28.3713 28.3713 28.3713 28.3713 28.3713 28.3713 28.3713 28.3713 28.3713 28.3713 28.3713 28.3713 28.3713 28.3713 28.3713 28.3713 28.3713 28.3713 28.3713 28.3713 28.3713 28.3713 28.3713 28.3713 28.3713 28.3713 28.3713 28.3713 28.3713 28.3713 28.3713 28.3713 28.3713 28.3713 28.3713 28.3713 28.3713 28.3713 28.3713 28.3713 28.3713 28.3713 28.3713 28.3713 28.3713 28.3713 28.3713 28.3713 28.3713 28.3713 28.3713 28.3713 28.3713 28.3713 28.3713 28.3713 28.3713 28.3713 28.3713 28.3713 28.3713 28.3713 28.3713 28.3713 28.3713 28.3713 28.3713 28.3713 28.3713 28.3713 28.3713 28.3713 28.3713 28.3713 28.3713 28.3713 28.3713 28.3713 28.3713 28.3713 28.3713 28.3713 28.3713 28.3713 28.3713 28.3713 28.3713 28.3713 28.3713 28.3713 28.3713 28.3713 28.3713 28.3713 28.3713 28.3713 28.3713 28.3713 31.3713 28.3713 28.3713 28.3713 28.3713 28.3713 28.3713 28.3713 28.3713 28.3713 28.3713 28.3713 28.3713 28.3713 28.3713 28.3713 28.3713 28.3713 28.3713 28.3713 28.3713 28.3713 28.3713 28.3713 28.3713 28.3713 28.3713 28.3713 28.3713 28.3713 28.3713 28.3713 28.3713 28.3713 28.3713 28.3713 28.3713 28.3713 28.3713 28.3713 41.3713 28.3713 28.3713 28.3713 28.3713 28.3713 28.3713 148.371 28.3713 28.3713 28.3713 28.3713 28.3713 28.3713 44.3713 28.3713 28.3713 28.3713 28.3713 28.3713 28.3713 28.3713 28.3713 28.3713 28.3713 28.3713 28.3713 40.3713 28.3713 28.3713 28.3713 28.3713 28.3713 28.3713 28.3713 28.3713 28.3713 28.3713 28.3713 28.3713 28.3713 28.3713 28.3713 28.3713 28.3713 28.3713 28.3713 28.3713 28.3713 28.3713 28.3713 28.3713 28.3713 28.3713 28.3713 28.3713 28.3713 28.3713 830.371 28.3713 28.3713 281.371 28.3713 28.3713 84.3713 28.3713 28.3713 28.3713 28.3713 28.3713 38.3713 28.3713 28.3713 28.3713 28.3713 28.3713 28.3713 28.3713 28.3713 28.3713 28.3713 28.3713 28.3713 28.3713 28.3713 28.3713 28.3713 28.3713 28.3713 28.3713 28.3713 28.3713 28.3713 28.3713 28.3713 28.3713 28.3713 28.3713 28.3713 28.3713 28.3713 28.3713 28.3713 28.3713 28.3713 28.3713 37.3713 28.3713 28.3713 28.3713 30.3713 28.3713 28.3713 28.3713 28.3713 28.3713 28.3713 28.3713 28.3713 28.3713 28.3713 28.3713 28.3713 28.3713 28.3713 28.3713 28.3713 28.3713 28.3713 28.3713 40.3713 32.3713 28.3713 28.3713 28.3713 28.3713 28.3713 28.3713 28.3713 28.3713 28.3713 28.3713 28.3713 109.371 28.3713 28.3713 28.3713 28.3713 28.3713 28.3713 28.3713 28.3713 28.3713 28.3713 28.3713 28.3713 28.3713 28.3713 28.3713 28.3713 28.3713 28.3713 28.3713 28.3713 28.3713 28.3713 28.3713 28.3713 31.3713 28.3713 28.3713 28.3713 28.3713 28.3713 28.3713 28.3713 28.3713 28.3713 28.3713 28.3713 28.3713 28.3713 28.3713 28.3713 28.3713 28.3713 28.3713 28.3713 28.3713 28.3713 28.3713 28.3713 28.3713 28.3713 28.3713 28.3713 28.3713 28.3713 28.3713 28.3713 28.3713 28.3713 28.3713 28.3713 28.3713 28.3713 28.3713 28.3713 28.3713 28.3713 28.3713 28.3713 28.3713 28.3713 28.3713 28.3713 28.3713 28.3713 28.3713 28.3713 28.3713 28.3713 28.3713 28.3713 28.3713 28.3713 41.3713 28.3713 28.3713 38.3713 28.3713 28.3713 28.3713 28.3713 28.3713 28.3713 28.3713 28.3713 28.3713 28.3713 28.3713 28.3713 28.3713 28.3713 28.3713 28.3713 28.3713 28.3713 28.3713 28.3713 28.3713 28.3713 28.3713 28.3713 28.3713 28.3713 28.3713 28.3713 28.3713 28.3713 28.3713 28.3713 28.3713 28.3713 28.3713 28.3713 28.3713 28.3713 28.3713 28.3713 28.3713 28.3713 28.3713 28.3713 28.3713 28.3713 28.3713 28.3713 28.3713 28.3713 28.3713 28.3713 28.3713 28.3713 28.3713 182.371 28.3713 28.3713 28.3713 28.3713 28.3713 28.3713 28.3713 28.3713 28.3713 28.3713 28.3713 28.3713 28.3713 28.3713 28.3713 28.3713 28.3713 28.3713 28.3713 28.3713 28.3713 28.3713 28.3713 28.3713 28.3713 28.3713 28.3713 28.3713 28.3713 28.3713 28.3713 28.3713 28.3713 28.3713 28.3713 28.3713 28.3713 28.3713 28.3713 28.3713 28.3713 28.3713 28.3713 28.3713 28.3713 28.3713 28.3713 28.3713 28.3713 28.3713 28.3713 28.3713 28.3713 28.3713 28.3713 28.3713 28.3713 28.3713 28.3713 28.3713 28.3713 28.3713 28.3713 28.3713 28.3713 28.3713 28.3713 28.3713 28.3713 28.3713 28.3713 28.3713 28.3713 28.3713 28.3713 28.3713 28.3713 28.3713 28.3713 28.3713 28.3713 28.3713 28.3713 28.3713 28.3713 28.3713 28.3713 28.3713 28.3713 28.3713 28.3713 28.3713 28.3713 28.3713 28.3713 28.3713 40.3713 28.3713 28.3713 28.3713 28.3713 28.3713 28.3713 28.3713 28.3713 28.3713 28.3713 28.3713 28.3713 28.3713 28.3713 28.3713 28.3713 28.3713 28.3713 28.3713 28.3713 28.3713 28.3713 28.3713 28.3713 28.3713 28.3713 28.3713 1046.37 28.3713 28.3713 28.3713 28.3713 28.3713 28.3713 28.3713 28.3713 28.3713 28.3713 28.3713 28.3713 28.3713 28.3713 28.3713 28.3713 28.3713 28.3713 28.3713 28.3713 28.3713 28.3713 28.3713 28.3713 28.3713 28.3713 28.3713 28.3713 28.3713 28.3713 28.3713 28.3713 28.3713 28.3713 28.3713 28.3713 28.3713 28.3713 28.3713 28.3713 28.3713 28.3713 28.3713 28.3713 28.3713 28.3713 28.3713 36.3713 28.3713 28.3713 28.3713 28.3713 28.3713 28.3713 28.3713 28.3713 28.3713 28.3713 28.3713 28.3713 28.3713 28.3713 29.3713 28.3713 28.3713 28.3713 28.3713 28.3713 28.3713 28.3713 28.3713 28.3713 28.3713 28.3713 28.3713 28.3713 28.3713 28.3713 28.3713 28.3713 28.3713 28.3713 28.3713 28.3713 28.3713 28.3713 28.3713 28.3713 28.3713 28.3713 28.3713 28.3713 28.3713 28.3713 28.3713 28.3713 28.3713 28.3713 28.3713 28.3713 28.3713 28.3713 28.3713 28.3713 28.3713 28.3713 28.3713 28.3713 28.3713 28.3713 28.3713 28.3713 28.3713 28.3713 28.3713 28.3713 28.3713 28.3713 28.3713 28.3713 28.3713 28.3713 28.3713 28.3713 28.3713 28.3713 28.3713 28.3713 28.3713 28.3713 28.3713 28.3713 28.3713 28.3713 28.3713 28.3713 28.3713 28.3713 28.3713 28.3713 28.3713 28.3713 28.3713 28.3713 28.3713 28.3713 28.3713 28.3713 28.3713 28.3713 28.3713 28.3713 28.3713 28.3713 28.3713 28.3713 28.3713 28.3713 28.3713 28.3713 28.3713 28.3713 28.3713 28.3713 28.3713 28.3713 28.3713 28.3713 28.3713 28.3713 28.3713 28.3713 28.3713 28.3713 28.3713 28.3713 28.3713 28.3713 28.3713 28.3713 28.3713 28.3713 28.3713 28.3713 28.3713 28.3713 28.3713 28.3713 28.3713 28.3713 28.3713 28.3713 28.3713 28.3713 28.3713 28.3713 28.3713 28.3713 28.3713 28.3713 28.3713 28.3713 28.3713 28.3713 28.3713 28.3713 28.3713 28.3713 28.3713 28.3713 28.3713 28.3713 28.3713 28.3713 28.3713 28.3713 28.3713 28.3713 28.3713 28.3713 28.3713 28.3713 28.3713 28.3713 28.3713 28.3713 28.3713 28.3713 28.3713 28.3713 28.3713 28.3713 28.3713 28.3713 28.3713 28.3713 28.3713 28.3713 28.3713 28.3713 28.3713 28.3713 28.3713 28.3713 28.3713 28.3713 28.3713 28.3713 28.3713 28.3713 28.3713 28.3713 28.3713 28.3713 28.3713 28.3713 28.3713 28.3713 28.3713 28.3713 28.3713 28.3713 28.3713 28.3713 28.3713 28.3713 28.3713 28.3713 28.3713 28.3713 28.3713 28.3713 28.3713 28.3713 28.3713 28.3713 28.3713 28.3713 28.3713 28.3713 28.3713 28.3713 28.3713 28.3713 28.3713 28.3713 28.3713 28.3713 28.3713 28.3713 46.3713 28.3713 28.3713 28.3713 28.3713 28.3713 28.3713 28.3713 28.3713 28.3713 28.3713 28.3713 28.3713 28.3713 28.3713 28.3713 28.3713 28.3713 28.3713 28.3713 28.3713 28.3713 28.3713 28.3713 40.3713 28.3713 28.3713 28.3713 28.3713 28.3713 28.3713 28.3713 28.3713 28.3713 28.3713 28.3713 28.3713 28.3713 28.3713 28.3713 28.3713 28.3713 28.3713 28.3713 28.3713 28.3713 28.3713 28.3713 28.3713 28.3713 28.3713 28.3713 28.3713 28.3713 28.3713 28.3713 28.3713 28.3713 28.3713 28.3713 28.3713 28.3713 28.3713 28.3713 28.3713 28.3713 28.3713 28.3713 28.3713 28.3713 28.3713 28.3713 28.3713 28.3713 28.3713 28.3713 28.3713 28.3713 28.3713 28.3713 28.3713 28.3713 28.3713 28.3713 28.3713 28.3713 28.3713 28.3713 28.3713 36.3713 28.3713 28.3713 28.3713 28.3713 28.3713 33.3713 28.3713 28.3713 28.3713 28.3713 28.3713 28.3713 28.3713 28.3713 28.3713 28.3713 28.3713 28.3713 28.3713 28.3713 28.3713 28.3713 28.3713 28.3713 28.3713 28.3713 28.3713 28.3713 28.3713 28.3713 28.3713 28.3713 28.3713 28.3713 28.3713 28.3713 28.3713 28.3713 28.3713 28.3713 28.3713 28.3713 28.3713 28.3713 28.3713 28.3713 28.3713 28.3713 28.3713 28.3713 28.3713 28.3713 28.3713 28.3713 28.3713 28.3713 28.3713 28.3713 28.3713 42.3713 28.3713 28.3713 28.3713 28.3713 28.3713 28.3713 28.3713 28.3713 28.3713 28.3713 28.3713 28.3713 28.3713 28.3713 28.3713 28.3713 28.3713 28.3713 28.3713 28.3713 28.3713 28.3713 28.3713 28.3713 28.3713 28.3713 28.3713 28.3713 28.3713 28.3713 28.3713 28.3713 28.3713 28.3713 28.3713 28.3713 28.3713 28.3713 28.3713 28.3713 28.3713 28.3713 28.3713 28.3713 28.3713 28.3713 28.3713 28.3713 28.3713 28.3713 28.3713 28.3713 28.3713 28.3713 28.3713 28.3713 28.3713 28.3713 28.3713 28.3713 28.3713 28.3713 28.3713 28.3713 28.3713 28.3713 28.3713 28.3713 28.3713 28.3713 28.3713 28.3713 28.3713 28.3713 28.3713 28.3713 28.3713 28.3713 28.3713 28.3713 28.3713 28.3713 28.3713 28.3713 28.3713 28.3713 28.3713 28.3713 28.3713 28.3713 28.3713 28.3713 
rewards of Offsets elements: 1052 260 0 634 504 0 560 81 0 0 362 0 0 0 0 167 132 131 835 0 0 0 0 0 0 0 0 0 0 97 0 0 0 0 0 0 0 0 0 0 0 0 0 0 0 0 0 464 0 0 0 0 0 0 0 0 0 0 0 0 0 0 0 0 0 0 0 0 0 0 0 0 0 0 0 0 0 0 0 0 0 0 0 0 0 0 0 0 0 0 0 0 0 0 0 0 0 0 0 0 0 0 0 0 0 0 0 0 0 0 0 0 0 0 0 0 0 0 0 0 0 0 0 0 0 0 0 0 0 0 0 0 0 0 0 0 0 0 0 0 0 0 0 0 0 0 0 0 0 0 0 0 0 0 0 0 0 0 0 0 0 0 0 0 0 0 0 0 0 0 0 0 0 0 0 0 0 0 0 0 0 0 0 0 0 0 0 0 0 0 0 0 0 0 0 0 0 0 0 0 0 0 0 0 0 0 0 0 0 0 0 0 0 0 0 0 0 0 0 0 0 0 0 0 0 0 0 0 0 0 0 0 0 0 0 0 0 0 0 0 0 0 0 0 0 0 0 0 0 0 0 0 0 0 0 0 0 0 0 0 0 0 0 0 0 0 0 0 0 0 0 0 0 0 0 0 0 0 0 0 0 0 0 0 0 8 169 297 321 1 36 0 0 0 0 1 0 0 0 0 0 0 0 0 0 96 155 0 0 0 0 0 0 0 0 15 10 6 0 13 0 0 0 0 28 28 36 0 0 221 0 542 9 159 0 519 0 682 90 0 0 0 0 91 0 180 0 0 0 0 0 0 0 0 0 0 0 0 0 0 0 0 0 0 0 791 0 0 184 0 0 0 0 0 0 0 0 30 25 6 21 0 0 0 9 0 0 0 0 0 0 0 0 0 2 0 0 2 0 0 24 0 0 0 44 0 458 6 0 0 0 0 0 0 0 0 0 0 0 0 0 0 0 0 0 0 0 0 0 0 0 0 0 0 0 0 0 0 0 0 0 0 0 0 0 0 0 0 0 0 0 140 707 0 259 495 0 0 0 0 0 0 0 0 46 84 0 0 0 0 0 0 0 0 0 0 0 0 0 0 0 0 0 0 0 0 248 40 0 0 0 0 0 0 0 0 0 0 4 0 0 0 0 0 345 0 0 0 0 0 0 0 0 0 0 0 8 132 288 0 0 0 0 0 0 57 0 0 0 0 0 90 0 0 0 565 0 0 0 0 0 0 0 0 0 0 0 0 0 49 0 0 9 0 0 112 12 10 270 0 0 0 60 4 64 0 0 144 176 0 0 0 0 0 0 694 0 0 0 0 0 2 0 0 8 2 0 18 185 242 0 0 0 0 0 0 119 14 0 0 0 276 5 0 220 288 0 0 0 0 0 0 0 3 19 0 0 39 165 0 0 0 0 152 0 0 0 0 20 0 0 4 12 340 0 0 0 0 102 0 0 0 0 0 0 0 0 0 0 0 0 0 0 0 0 0 0 0 0 0 0 0 0 0 0 0 0 0 0 0 0 0 0 0 0 0 0 0 0 0 33 0 0 0 0 0 0 0 0 0 0 0 0 0 0 0 0 0 0 0 0 0 0 0 0 0 0 0 0 0 0 0 0 0 0 0 0 0 0 0 0 0 0 0 0 0 0 0 0 0 0 0 0 0 0 0 0 0 0 0 0 0 0 0 0 0 0 0 0 0 0 0 0 0 0 0 0 0 0 0 0 0 0 0 0 0 0 0 0 0 0 0 0 0 0 0 0 0 0 0 0 0 3 0 0 0 0 0 0 0 0 0 0 0 0 0 0 0 0 0 0 0 0 0 0 0 0 0 0 0 0 0 0 0 0 0 0 0 0 0 0 0 13 0 0 0 0 0 0 120 0 0 0 0 0 0 16 0 0 0 0 0 0 0 0 0 0 0 0 12 0 0 0 0 0 0 0 0 0 0 0 0 0 0 0 0 0 0 0 0 0 0 0 0 0 0 0 0 0 0 802 0 0 253 0 0 56 0 0 0 0 0 10 0 0 0 0 0 0 0 0 0 0 0 0 0 0 0 0 0 0 0 0 0 0 0 0 0 0 0 0 0 0 0 0 0 0 0 9 0 0 0 2 0 0 0 0 0 0 0 0 0 0 0 0 0 0 0 0 0 0 0 12 4 0 0 0 0 0 0 0 0 0 0 0 81 0 0 0 0 0 0 0 0 0 0 0 0 0 0 0 0 0 0 0 0 0 0 0 0 3 0 0 0 0 0 0 0 0 0 0 0 0 0 0 0 0 0 0 0 0 0 0 0 0 0 0 0 0 0 0 0 0 0 0 0 0 0 0 0 0 0 0 0 0 0 0 0 0 0 0 0 0 0 0 0 0 0 13 0 0 10 0 0 0 0 0 0 0 0 0 0 0 0 0 0 0 0 0 0 0 0 0 0 0 0 0 0 0 0 0 0 0 0 0 0 0 0 0 0 0 0 0 0 0 0 0 0 0 0 0 0 0 0 0 0 0 154 0 0 0 0 0 0 0 0 0 0 0 0 0 0 0 0 0 0 0 0 0 0 0 0 0 0 0 0 0 0 0 0 0 0 0 0 0 0 0 0 0 0 0 0 0 0 0 0 0 0 0 0 0 0 0 0 0 0 0 0 0 0 0 0 0 0 0 0 0 0 0 0 0 0 0 0 0 0 0 0 0 0 0 0 0 0 0 0 0 0 0 0 0 0 0 0 12 0 0 0 0 0 0 0 0 0 0 0 0 0 0 0 0 0 0 0 0 0 0 0 0 0 0 0 1018 0 0 0 0 0 0 0 0 0 0 0 0 0 0 0 0 0 0 0 0 0 0 0 0 0 0 0 0 0 0 0 0 0 0 0 0 0 0 0 0 0 0 0 0 0 0 0 8 0 0 0 0 0 0 0 0 0 0 0 0 0 0 1 0 0 0 0 0 0 0 0 0 0 0 0 0 0 0 0 0 0 0 0 0 0 0 0 0 0 0 0 0 0 0 0 0 0 0 0 0 0 0 0 0 0 0 0 0 0 0 0 0 0 0 0 0 0 0 0 0 0 0 0 0 0 0 0 0 0 0 0 0 0 0 0 0 0 0 0 0 0 0 0 0 0 0 0 0 0 0 0 0 0 0 0 0 0 0 0 0 0 0 0 0 0 0 0 0 0 0 0 0 0 0 0 0 0 0 0 0 0 0 0 0 0 0 0 0 0 0 0 0 0 0 0 0 0 0 0 0 0 0 0 0 0 0 0 0 0 0 0 0 0 0 0 0 0 0 0 0 0 0 0 0 0 0 0 0 0 0 0 0 0 0 0 0 0 0 0 0 0 0 0 0 0 0 0 0 0 0 0 0 0 0 0 0 0 0 0 0 0 0 0 0 0 0 0 0 0 0 0 0 0 0 0 0 0 0 0 0 0 0 0 0 0 0 0 0 0 0 18 0 0 0 0 0 0 0 0 0 0 0 0 0 0 0 0 0 0 0 0 0 0 0 12 0 0 0 0 0 0 0 0 0 0 0 0 0 0 0 0 0 0 0 0 0 0 0 0 0 0 0 0 0 0 0 0 0 0 0 0 0 0 0 0 0 0 0 0 0 0 0 0 0 0 0 0 0 0 0 0 0 0 0 0 0 0 0 0 8 0 0 0 0 0 5 0 0 0 0 0 0 0 0 0 0 0 0 0 0 0 0 0 0 0 0 0 0 0 0 0 0 0 0 0 0 0 0 0 0 0 0 0 0 0 0 0 0 0 0 0 0 0 0 0 0 0 0 0 14 0 0 0 0 0 0 0 0 0 0 0 0 0 0 0 0 0 0 0 0 0 0 0 0 0 0 0 0 0 0 0 0 0 0 0 0 0 0 0 0 0 0 0 0 0 0 0 0 0 0 0 0 0 0 0 0 0 0 0 0 0 0 0 0 0 0 0 0 0 0 0 0 0 0 0 0 0 0 0 0 0 0 0 0 0 0 0 0 0 0 0 0 Printing Sanity3
offset_index value1765
offset list size1765
reward size1765
potential size1765
-----------------------------------------------------------------------------------------------------------------------------------------------------------------------------------------------------

DRAM Statistics
 CHANNEL 0
 RQ ROW_BUFFER_HIT:     109893  ROW_BUFFER_MISS:     369714
 DBUS_CONGESTED:        144
 WQ ROW_BUFFER_HIT:      50842  ROW_BUFFER_MISS:     242093  FULL:          0

 AVG_CONGESTED_CYCLE: 4
 All warmup complete: 2
Channel 0 Bank busy for read cycles: 0
Channel 0 Bank busy for write cycles: 0
Channel 0
Rank 0
0banks busy for read cycles: 291362635
0banks busy for write cycles: 140309
1banks busy for read cycles: 34025691
1banks busy for write cycles: 19770006
2banks busy for read cycles: 6622409
2banks busy for write cycles: 5678909
3banks busy for read cycles: 1671791
3banks busy for write cycles: 1960369
4banks busy for read cycles: 353311
4banks busy for write cycles: 806857
5banks busy for read cycles: 178337
5banks busy for write cycles: 434584
6banks busy for read cycles: 143050
6banks busy for write cycles: 297648
7banks busy for read cycles: 253033
7banks busy for write cycles: 300064
8banks busy for read cycles: 490418
8banks busy for write cycles: 1302381

CPU 0 Branch Prediction Accuracy: 98.6141% MPKI: 2.42227 Average ROB Occupancy at Mispredict: 27.132
Branch types
NOT_BRANCH: 165044320 82.5222%
BRANCH_DIRECT_JUMP: 1694154 0.847077%
BRANCH_INDIRECT: 6802149 3.40107%
BRANCH_CONDITIONAL: 20796949 10.3985%
BRANCH_DIRECT_CALL: 1985283 0.992641%
BRANCH_INDIRECT_CALL: 845555 0.422777%
BRANCH_RETURN: 2831751 1.41588%
BRANCH_OTHER: 0 0%

DRAM PAGES: 1048576
Allocated PAGES: 3509
