
*** ChampSim Multicore Out-of-Order Simulator ***

Warmup Instructions: 50000000
Simulation Instructions: 200000000
Number of CPUs: 1
LLC sets: 2048
LLC ways: 16
Off-chip DRAM Size: 4096 MB Channels: 1 Width: 64-bit Data Rate: 6400 MT/s
CPU 0 runs traces/spec2k17/server_038.champsimtrace.xz
.xz
BTB has LRU replacement policy
ITLB has LRU replacement policy
DTLB has LRU replacement policy
STLB has LRU replacement policy
L1I has LRU replacement policy
L1D has LRU replacement policy
Initialize SRRIP state for L2C
Initialize DRRIP state for LLC
Heartbeat CPU 0 instructions: 10000000 cycles: 2787069 heartbeat IPC: 3.588 cumulative IPC: 3.588 (Simulation time: 0 hr 0 min 28 sec) 
Heartbeat CPU 0 instructions: 20000002 cycles: 5572044 heartbeat IPC: 3.5907 cumulative IPC: 3.58935 (Simulation time: 0 hr 1 min 1 sec) 
Heartbeat CPU 0 instructions: 30000003 cycles: 8355815 heartbeat IPC: 3.59225 cumulative IPC: 3.59031 (Simulation time: 0 hr 1 min 35 sec) 
Heartbeat CPU 0 instructions: 40000001 cycles: 11140043 heartbeat IPC: 3.59166 cumulative IPC: 3.59065 (Simulation time: 0 hr 2 min 7 sec) 
Heartbeat CPU 0 instructions: 50000001 cycles: 13924579 heartbeat IPC: 3.59126 cumulative IPC: 3.59077 (Simulation time: 0 hr 2 min 40 sec) 

Warmup complete CPU 0 instructions: 50000001 cycles: 13924579 (Simulation time: 0 hr 2 min 40 sec) 

Offsets elements: 
Potential of Offsets elements: 
rewards of Offsets elements: 
Printing Sanity1
offset list size2141
Offsets elements: 
Potential of Offsets elements: 
rewards of Offsets elements: 1627 0 0 0 0 0 0 0 0 1 0 0 0 0 0 8 227 0 3876 0 4 170 0 0 8 0 0 0 0 0 0 0 0 0 0 32 0 0 0 0 85 611 0 0 0 0 108 0 0 0 0 27 55 0 0 0 3 5 0 0 0 80 63 0 0 0 37 31 0 0 1086 96 0 0 0 340 65 32 0 0 0 84 32 0 0 0 31 0 0 0 0 63 191 0 0 0 42 0 0 0 0 210 5 0 0 0 224 25 0 815 0 72 0 0 0 0 0 137 66 0 0 0 18 0 0 0 0 3 0 0 2303 0 91 0 0 0 0 65 0 0 0 0 135 0 0 0 0 12 0 0 0 0 18 0 0 1626 1137 382 0 0 0 0 0 0 0 0 0 0 84 5 0 0 0 58 1 0 0 0 11 13 0 0 1 14 27 0 0 0 0 0 0 0 0 0 0 0 0 0 14 0 0 0 0 19 0 0 0 0 0 0 0 0 0 0 0 0 0 0 40 0 0 0 0 0 14 0 0 0 20 0 0 0 0 43 0 0 0 0 90 4 0 0 0 3 1 397 0 0 12 0 0 0 0 76 0 0 0 6 107 597 0 0 14 0 0 0 0 0 23 0 0 350 2 50 0 0 0 7 318 0 0 0 0 0 0 0 0 36 281 0 0 0 56 72 84 0 0 0 4 21 0 0 0 0 72 0 0 0 9 135 0 0 0 11 36 0 0 0 0 0 0 0 0 0 0 0 0 3 0 52 0 0 0 9 108 0 0 2 4 36 0 0 6 7 27 0 0 12 144 12 0 410 4 18 9 0 0 0 24 63 0 0 0 0 0 20 0 0 0 0 2 0 0 0 15 39 0 0 0 181 102 0 0 0 6 45 0 0 871 0 1 0 0 32 0 2 0 0 948 0 0 0 0 0 0 0 0 0 0 0 0 0 0 0 584 0 0 0 0 23 36 0 0 0 0 0 0 0 32 128 0 5 45 0 178 21 0 215 509 0 0 141 0 0 0 0 308 0 5 0 0 4 40 0 0 0 335 110 538 0 0 0 700 0 0 0 4 33 0 0 0 2 0 6 0 0 0 0 0 0 0 270 0 0 0 0 0 0 0 0 0 0 0 0 0 0 0 0 0 199 0 0 0 0 0 0 0 0 0 0 0 0 0 0 85 0 0 0 48 8 0 0 0 0 0 0 0 0 455 0 0 0 76 459 0 0 364 0 0 0 0 0 0 0 0 0 1 1 0 0 0 49 0 0 0 0 0 9 0 0 0 0 0 0 0 0 0 0 0 0 0 0 0 0 0 0 0 0 0 0 0 0 187 233 0 0 0 0 0 486 0 0 0 0 0 0 0 0 0 0 0 0 1 0 0 0 0 0 206 0 0 0 0 2 19 0 0 0 0 0 0 0 0 0 0 429 0 0 0 14 0 0 0 0 0 0 2 0 0 0 0 0 0 0 0 0 0 0 28 0 0 0 0 0 0 0 0 0 0 0 0 0 0 0 47 0 0 0 0 0 0 0 0 0 0 0 0 0 0 0 0 0 0 0 0 0 0 0 0 0 0 0 0 0 0 0 0 34 0 0 0 51 0 27 0 0 30 0 0 0 0 0 0 0 0 0 0 0 0 0 0 0 0 0 0 0 3 4 0 0 0 112 0 0 0 1 0 0 0 0 3 0 0 0 0 0 60 0 0 0 0 4 0 0 0 9 0 0 0 0 0 0 0 0 0 0 0 0 0 0 21 16 0 0 0 0 27 0 0 0 0 4 0 0 0 0 12 0 0 0 0 0 0 0 0 0 0 0 86 0 0 0 0 71 0 0 0 0 63 4 0 0 25 17 0 0 0 0 40 24 20 0 0 6 14 10 5 3 14 0 0 0 0 18 0 0 0 0 0 0 0 0 0 0 0 0 0 29 8 0 0 0 0 0 0 0 0 0 0 0 0 0 0 4 0 0 0 0 14 0 0 0 0 10 0 0 0 0 0 0 0 0 0 0 0 0 0 0 0 0 0 0 2 5 0 0 0 0 8 43 0 0 0 0 0 0 0 39 0 0 0 0 0 0 0 0 0 0 0 4 0 0 0 0 0 0 0 0 0 0 0 0 0 0 0 0 0 0 0 0 0 4 0 0 0 85 0 0 0 0 0 0 0 0 0 0 16 0 0 0 8 0 0 0 0 0 0 0 0 264 0 0 0 0 0 0 0 0 0 0 32 0 0 0 0 544 0 0 0 0 0 0 0 312 0 0 0 0 0 0 0 0 0 0 0 0 0 0 0 0 0 0 0 0 0 0 0 0 0 0 0 0 0 0 0 0 0 0 0 0 15 0 0 0 0 6 0 0 0 0 0 0 0 0 0 0 45 1 0 0 243 0 0 0 0 0 0 0 0 6 0 44 0 0 0 0 0 0 0 0 137 0 0 0 0 0 0 0 0 0 275 1 0 0 0 0 34 0 0 0 0 0 0 0 0 0 0 0 0 0 0 0 0 0 0 0 0 0 0 0 0 27 21 0 0 0 21 3 0 12 0 0 6 0 6 4 12 40 0 0 0 0 0 0 0 0 0 0 0 0 0 0 0 0 0 0 0 0 0 0 0 0 0 0 0 0 0 0 0 0 0 28 0 14 0 0 0 0 0 0 0 0 0 0 0 84 0 0 8 0 8 0 0 4 2 4 0 0 1 0 6 0 0 16 19 14 0 0 3 0 0 0 0 8 0 0 0 0 4 0 0 0 0 320 0 0 0 0 638 0 0 0 0 0 0 0 0 0 0 0 0 152 0 0 84 0 0 0 0 0 0 0 0 0 0 0 0 0 0 0 0 0 469 0 0 0 0 0 45 0 0 0 0 108 0 0 0 0 3 0 170 0 0 0 0 0 0 0 10 3 0 0 0 0 0 0 0 0 0 0 0 0 0 0 0 0 0 0 0 0 0 0 0 14 0 0 0 0 26 0 0 2 0 0 0 0 9 0 0 47 0 0 0 0 0 0 0 0 0 10 0 0 0 0 0 18 0 0 0 0 0 0 0 0 0 0 0 0 0 0 0 0 0 0 284 0 0 0 0 18 0 0 0 0 0 0 0 0 0 0 0 0 0 0 4 66 0 0 0 0 0 0 0 0 0 0 0 0 0 0 36 2 0 0 0 28 0 0 0 0 14 0 0 0 0 8 120 0 0 0 0 0 0 0 0 0 11 0 0 0 1 0 0 0 0 0 345 0 0 0 0 18 0 0 0 0 8 0 0 0 0 9 0 0 0 0 4 0 0 0 0 18 0 0 0 0 13 2 0 0 17 0 0 0 0 1 0 0 0 0 0 0 0 0 0 0 2 0 0 0 0 0 0 0 0 0 0 0 0 0 0 24 2 0 0 0 0 0 0 0 0 0 0 0 0 0 474 0 0 0 0 0 0 0 0 135 11 0 0 0 0 0 0 0 0 10 0 0 0 0 1 0 0 0 0 0 1 0 14 0 0 3 4 9 0 0 0 45 2 0 0 0 0 0 0 0 0 0 0 0 0 0 0 4 0 0 0 0 2 0 0 9 10 0 0 0 0 0 0 4 8 0 0 0 0 0 0 115 0 0 0 0 0 0 0 0 0 0 0 0 0 0 0 0 0 0 0 0 0 0 0 0 0 0 0 0 0 0 0 0 0 0 0 0 0 0 0 0 0 0 0 0 0 1 0 0 0 0 0 0 0 0 0 0 0 0 0 0 0 0 0 21 0 0 0 0 0 0 0 0 0 0 0 0 0 0 0 0 0 0 0 0 0 0 0 0 0 0 0 0 0 0 0 0 0 0 0 0 0 0 0 0 0 0 0 0 0 0 0 0 17 4 0 0 0 0 0 0 0 2 0 0 0 0 0 0 0 0 0 0 0 0 0 0 0 0 0 0 0 0 0 0 0 0 0 0 0 0 0 0 0 0 0 0 0 0 0 0 0 0 0 0 0 0 0 0 0 0 0 0 44 0 0 7 0 18 0 0 0 0 0 0 0 0 0 6 8 0 0 0 0 11 0 0 0 0 0 0 0 0 0 0 0 0 0 0 2 8 0 0 0 0 4 0 0 0 0 0 0 0 0 0 0 0 0 0 0 0 0 0 0 0 0 0 0 0 0 0 0 0 0 36 0 0 0 0 0 0 0 0 0 0 0 0 0 0 0 0 0 0 0 0 0 0 0 0 5 0 0 0 0 0 85 0 1 0 0 230 2 0 0 0 11 0 0 0 0 0 0 0 0 0 0 0 0 0 0 0 0 0 0 0 0 16 0 0 0 0 0 0 0 0 0 0 0 0 0 0 0 0 0 0 0 2 0 0 0 0 0 0 0 0 0 8 0 0 0 0 0 0 0 0 0 0 0 0 0 0 0 0 0 0 0 0 0 0 0 0 13 0 0 0 0 0 0 0 0 0 0 0 0 0 0 0 0 0 0 0 0 0 0 0 0 0 26 0 0 0 0 0 0 0 0 0 0 0 0 164 9 0 0 0 0 0 470 0 0 0 0 0 0 0 0 12 8 0 0 0 0 0 0 0 0 0 0 0 0 0 0 0 0 0 0 0 0 0 0 0 0 0 0 0 0 0 0 0 0 0 0 0 0 0 0 0 0 106 0 57 0 0 251 0 0 0 0 0 0 0 0 0 0 0 1 0 0 0 0 0 0 0 0 0 0 0 0 0 0 0 2 0 0 0 0 0 0 0 0 0 0 0 0 0 1 21 52 0 0 0 0 0 0 0 0 0 0 0 0 0 0 0 0 0 0 0 0 0 0 0 35 0 3 0 0 0 0 14 22 0 0 0 0 0 9 0 0 0 0 1 0 0 13 
Printing Sanity2
Heartbeat CPU 0 instructions: 60000000 cycles: 34085364 heartbeat IPC: 0.496012 cumulative IPC: 0.496012 (Simulation time: 0 hr 3 min 41 sec) 
Heartbeat CPU 0 instructions: 70000000 cycles: 54059988 heartbeat IPC: 0.500635 cumulative IPC: 0.498313 (Simulation time: 0 hr 4 min 37 sec) 
Heartbeat CPU 0 instructions: 80000000 cycles: 74030190 heartbeat IPC: 0.500746 cumulative IPC: 0.499121 (Simulation time: 0 hr 5 min 38 sec) 
Heartbeat CPU 0 instructions: 90000001 cycles: 94026557 heartbeat IPC: 0.500091 cumulative IPC: 0.499363 (Simulation time: 0 hr 6 min 40 sec) 
Heartbeat CPU 0 instructions: 100000002 cycles: 114017806 heartbeat IPC: 0.500219 cumulative IPC: 0.499534 (Simulation time: 0 hr 7 min 40 sec) 
*** Reached end of trace for Core: 0 Repeating trace: traces/spec2k17/server_038.champsimtrace.xz
Heartbeat CPU 0 instructions: 110000000 cycles: 134118627 heartbeat IPC: 0.497492 cumulative IPC: 0.499193 (Simulation time: 0 hr 8 min 38 sec) 
Heartbeat CPU 0 instructions: 120000003 cycles: 154164444 heartbeat IPC: 0.498857 cumulative IPC: 0.499145 (Simulation time: 0 hr 9 min 34 sec) 
Heartbeat CPU 0 instructions: 130000001 cycles: 174139158 heartbeat IPC: 0.500633 cumulative IPC: 0.49933 (Simulation time: 0 hr 10 min 31 sec) 
Heartbeat CPU 0 instructions: 140000001 cycles: 194120125 heartbeat IPC: 0.500476 cumulative IPC: 0.499457 (Simulation time: 0 hr 11 min 32 sec) 
Heartbeat CPU 0 instructions: 150000002 cycles: 214101831 heartbeat IPC: 0.500458 cumulative IPC: 0.499557 (Simulation time: 0 hr 12 min 27 sec) 
Heartbeat CPU 0 instructions: 160000000 cycles: 234132641 heartbeat IPC: 0.499231 cumulative IPC: 0.499528 (Simulation time: 0 hr 13 min 27 sec) 
Heartbeat CPU 0 instructions: 170000002 cycles: 254066590 heartbeat IPC: 0.501657 cumulative IPC: 0.499704 (Simulation time: 0 hr 14 min 28 sec) 
Heartbeat CPU 0 instructions: 180000000 cycles: 273988207 heartbeat IPC: 0.501967 cumulative IPC: 0.499878 (Simulation time: 0 hr 15 min 27 sec) 
Heartbeat CPU 0 instructions: 190000002 cycles: 293916239 heartbeat IPC: 0.501806 cumulative IPC: 0.500015 (Simulation time: 0 hr 16 min 27 sec) 
Heartbeat CPU 0 instructions: 200000001 cycles: 313851787 heartbeat IPC: 0.501616 cumulative IPC: 0.500121 (Simulation time: 0 hr 17 min 29 sec) 
*** Reached end of trace for Core: 0 Repeating trace: traces/spec2k17/server_038.champsimtrace.xz
Heartbeat CPU 0 instructions: 210000003 cycles: 333907665 heartbeat IPC: 0.498607 cumulative IPC: 0.500026 (Simulation time: 0 hr 18 min 31 sec) 
Heartbeat CPU 0 instructions: 220000000 cycles: 353954161 heartbeat IPC: 0.49884 cumulative IPC: 0.499956 (Simulation time: 0 hr 19 min 34 sec) 
Heartbeat CPU 0 instructions: 230000003 cycles: 373891933 heartbeat IPC: 0.501561 cumulative IPC: 0.500045 (Simulation time: 0 hr 20 min 36 sec) 
Heartbeat CPU 0 instructions: 240000001 cycles: 393900185 heartbeat IPC: 0.499794 cumulative IPC: 0.500032 (Simulation time: 0 hr 21 min 38 sec) 
Heartbeat CPU 0 instructions: 250000001 cycles: 413884541 heartbeat IPC: 0.500391 cumulative IPC: 0.50005 (Simulation time: 0 hr 22 min 39 sec) 
Finished CPU 0 instructions: 200000000 cycles: 399959962 cumulative IPC: 0.50005 (Simulation time: 0 hr 22 min 39 sec) 

ChampSim completed all CPUs

Region of Interest Statistics

CPU 0 cumulative IPC: 0.50005 instructions: 200000000 cycles: 399959962
ITLB TOTAL     ACCESS:   35174664  HIT:   32681953  MISS:    2492711  HIT %:    92.9133  MISS %:    7.08667   MPKI: 12.4636
ITLB LOAD TRANSLATION ACCESS:   35174664  HIT:   32681953  MISS:    2492711  HIT %:    92.9133  MISS %:    7.08667   MPKI: 12.4636
ITLB PREFETCH  REQUESTED:          0  ISSUED:          0  USEFUL:          0  USELESS:          0
ITLB USEFUL LOAD PREFETCHES:          0 PREFETCH ISSUED TO LOWER LEVEL:          0  ACCURACY: -nan
ITLB TIMELY PREFETCHES:          0 LATE PREFETCHES: 0 DROPPED PREFETCHES: 0
ITLB PREFETCHES SAME FILL-ORIGIN LEVEL: 0 DIFFERENT FILL-ORIGIN LEVEL: 0
ITLB AVERAGE MISS LATENCY: 9.01493 cycles
ITLB RQ	ACCESS:   41437382	FORWARD:          0	MERGED:    5451553	TO_CACHE:   35985829

DTLB TOTAL     ACCESS:   40144442  HIT:   38148214  MISS:    1996228  HIT %:    95.0274  MISS %:    4.97261   MPKI: 9.98114
DTLB LOAD TRANSLATION ACCESS:   40144442  HIT:   38148214  MISS:    1996228  HIT %:    95.0274  MISS %:    4.97261   MPKI: 9.98114
DTLB PREFETCH  REQUESTED:          0  ISSUED:          0  USEFUL:          0  USELESS:          0
DTLB USEFUL LOAD PREFETCHES:          0 PREFETCH ISSUED TO LOWER LEVEL:          0  ACCURACY: -nan
DTLB TIMELY PREFETCHES:          0 LATE PREFETCHES: 0 DROPPED PREFETCHES: 0
DTLB PREFETCHES SAME FILL-ORIGIN LEVEL: 0 DIFFERENT FILL-ORIGIN LEVEL: 0
DTLB AVERAGE MISS LATENCY: 9.63873 cycles
DTLB RQ	ACCESS:   55972272	FORWARD:          0	MERGED:   15674933	TO_CACHE:   40297339

STLB TOTAL     ACCESS:    8503927  HIT:    8481117  MISS:      22810  HIT %:    99.7318  MISS %:   0.268229   MPKI: 0.11405
STLB LOAD TRANSLATION ACCESS:    4488939  HIT:    4466130  MISS:      22809  HIT %:    99.4919  MISS %:   0.508116   MPKI: 0.114045
STLB TRANSLATION FROM L1D PREFETCHER ACCESS:    4014988  HIT:    4014987  MISS:          1  HIT %:        100  MISS %: 2.49067e-05   MPKI: 5e-06
STLB PREFETCH  REQUESTED:          0  ISSUED:          0  USEFUL:          1  USELESS:          0
STLB USEFUL LOAD PREFETCHES:          1 PREFETCH ISSUED TO LOWER LEVEL:          0  ACCURACY: inf
STLB TIMELY PREFETCHES:          1 LATE PREFETCHES: 0 DROPPED PREFETCHES: 36286
STLB PREFETCHES SAME FILL-ORIGIN LEVEL: 0 DIFFERENT FILL-ORIGIN LEVEL: 0
STLB AVERAGE MISS LATENCY: 56.5936 cycles
STLB RQ	ACCESS:   10385517	FORWARD:          0	MERGED:    1845195	TO_CACHE:    8540322

STLB Hit, L1D data hit: 0
STLB Hit, L2C data hit: 0
STLB Hit, LLC data hit: 0
STLB Hit, LLC data miss: 0
STLB STLB hints to L2: 0
L1D TOTAL     ACCESS:   61387093  HIT:   59696558  MISS:    1690535  HIT %:    97.2461  MISS %:    2.75389   MPKI: 8.45267
L1D LOAD      ACCESS:   31355618  HIT:   29920301  MISS:    1435317  HIT %:    95.4225  MISS %:    4.57754   MPKI: 7.17659
L1D RFO       ACCESS:   24206332  HIT:   23951128  MISS:     255204  HIT %:    98.9457  MISS %:    1.05429   MPKI: 1.27602
L1D PREFETCH  ACCESS:    5825143  HIT:    5825129  MISS:         14  HIT %:    99.9998  MISS %: 0.000240337   MPKI: 7e-05
AGUS PREFETCH L1 MISS: 0
L1D PREFETCH  REQUESTED:   12125378  ISSUED:   12125378  USEFUL:         14  USELESS:          0
L1D USEFUL LOAD PREFETCHES:         14 PREFETCH ISSUED TO LOWER LEVEL:         15  ACCURACY: 93.3333
L1D TIMELY PREFETCHES:         14 LATE PREFETCHES: 1 DROPPED PREFETCHES: 71432
L1D PREFETCHES SAME FILL-ORIGIN LEVEL: 15 DIFFERENT FILL-ORIGIN LEVEL: 0
L1D AVERAGE MISS LATENCY: 165.282 cycles
L1D RQ	ACCESS:   46005453	FORWARD:          0	MERGED:   14290526	TO_CACHE:   31464258
L1D WQ	ACCESS:   24697059	FORWARD:     250671	MERGED:     189045	TO_CACHE:   24508014
L1D PQ	ACCESS:    6228800	FORWARD:          0	MERGED:     332220	TO_CACHE:    5896578

L1D UNIQUE REGIONS ACCESSED: 0
L1D REGIONS CONFLICTS: 0
L1D Cross Page Prefetch Requests: 106478
L1D Same Page Prefetch Requests: 6122322
L1D ROI Sum of L1D PQ occupancy: 75744540
L1D PREFETCHES PUSHED FROM L2C: 0
L1I TOTAL     ACCESS:   37494953  HIT:   22056461  MISS:   15438492  HIT %:    58.8251  MISS %:    41.1749   MPKI: 77.1925
L1I LOAD      ACCESS:   37494953  HIT:   22056461  MISS:   15438492  HIT %:    58.8251  MISS %:    41.1749   MPKI: 77.1925
L1I PREFETCH  REQUESTED:          0  ISSUED:          0  USEFUL:          0  USELESS:          0
L1I USEFUL LOAD PREFETCHES:          0 PREFETCH ISSUED TO LOWER LEVEL:          0  ACCURACY: -nan
L1I TIMELY PREFETCHES:          0 LATE PREFETCHES: 0 DROPPED PREFETCHES: 0
L1I PREFETCHES SAME FILL-ORIGIN LEVEL: 0 DIFFERENT FILL-ORIGIN LEVEL: 0
L1I AVERAGE MISS LATENCY: 14.124 cycles
L1I RQ	ACCESS:   62468667	FORWARD:          0	MERGED:   21031285	TO_CACHE:   41437382

BTB TOTAL     ACCESS:   28064303  HIT:   24482602  MISS:    3581701  HIT %:    87.2375  MISS %:    12.7625   MPKI: 17.9085
BTB BRANCH_DIRECT_JUMP	ACCESS:    2068715  HIT:    1958904  MISS:     109811
BTB BRANCH_INDIRECT	ACCESS:   12589489  HIT:   11340070  MISS:    1249419
BTB BRANCH_CONDITIONAL	ACCESS:    3946651  HIT:    3830860  MISS:     115791
BTB BRANCH_DIRECT_CALL	ACCESS:    3834255  HIT:    3580644  MISS:     253611
BTB BRANCH_INDIRECT_CALL	ACCESS:     895479  HIT:     719752  MISS:     175727
BTB BRANCH_RETURN	ACCESS:    4729714  HIT:    3052372  MISS:    1677342
BTB BRANCH_OTHER ACCESS:          0  HIT:          0  MISS:          0

L2C TOTAL     ACCESS:   18128014  HIT:   17580638  MISS:     547376  HIT %:    96.9805  MISS %:     3.0195   MPKI: 2.73688
L2C LOAD      ACCESS:   16873745  HIT:   16455623  MISS:     418122  HIT %:    97.5221  MISS %:    2.47794   MPKI: 2.09061
L2C DATA LOAD MPKI: 1.98415
L2C INSTRUCTION LOAD MPKI: 0.106455
L2C RFO       ACCESS:     255204  HIT:     158902  MISS:      96302  HIT %:    62.2647  MISS %:    37.7353   MPKI: 0.48151
L2C PREFETCH  ACCESS:         15  HIT:         13  MISS:          2  HIT %:    86.6667  MISS %:    13.3333   MPKI: 1e-05
AGUS PREFETCH L1 MISS: 0
L2C DATA PREFETCH MPKI: 1e-05
L2C INSTRUCTION PREFETCH MPKI: 0
L2C WRITEBACK ACCESS:     895373  HIT:     880870  MISS:      14503  HIT %:    98.3802  MISS %:    1.61977   MPKI: 0.072515
L2C LOAD TRANSLATION ACCESS:      31473  HIT:      13028  MISS:      18445  HIT %:    41.3942  MISS %:    58.6058   MPKI: 0.092225
L2C TRANSLATION FROM L1D PREFETCHER ACCESS:      72204  HIT:      72202  MISS:          2  HIT %:    99.9972  MISS %: 0.00276993   MPKI: 1e-05
L2C PREFETCH  REQUESTED:          0  ISSUED:          0  USEFUL:          1  USELESS:          3
L2C USEFUL LOAD PREFETCHES:          1 PREFETCH ISSUED TO LOWER LEVEL:          2  ACCURACY: 50
L2C TIMELY PREFETCHES:          1 LATE PREFETCHES: 0 DROPPED PREFETCHES: 0
L2C PREFETCHES SAME FILL-ORIGIN LEVEL: 0 DIFFERENT FILL-ORIGIN LEVEL: 0
L2C AVERAGE MISS LATENCY: 51.1123 cycles
L2C RQ	ACCESS:   17232689	FORWARD:          0	MERGED:          0	TO_CACHE:   17232626
L2C WQ	ACCESS:     895373	FORWARD:         63	MERGED:          0	TO_CACHE:     895373
L2C PQ	ACCESS:         15	FORWARD:          0	MERGED:          0	TO_CACHE:         15

L2C Instructions Evicting Data 19132
L2C Translations Evicting Data 16933
L2C Data Evicting Data 458028
L2C Instructions Evicting Instructions 1312
L2C Translations Evicting Instructions 832
L2C Data Evicting Instructions 18432
L2C Instructions Evicting Translations 847
L2C Translations Evicting Translations 682
L2C Data Evicting Translations 16675
L2C Dense regions hint from L2: 0
PSCL5 TOTAL     ACCESS:      59096  HIT:      59096  MISS:          0  HIT %:        100  MISS %:          0   MPKI: 0
PSCL5 LOAD TRANSLATION ACCESS:      22809  HIT:      22809  MISS:          0  HIT %:        100  MISS %:          0   MPKI: 0
PSCL5 TRANSLATION FROM L1D PREFETCHER ACCESS:      36287  HIT:      36287  MISS:          0  HIT %:        100  MISS %:          0   MPKI: 0
PSCL5 PREFETCH  REQUESTED:          0  ISSUED:          0  USEFUL:          0  USELESS:          0
PSCL5 USEFUL LOAD PREFETCHES:          0 PREFETCH ISSUED TO LOWER LEVEL:          0  ACCURACY: -nan
PSCL5 TIMELY PREFETCHES:          0 LATE PREFETCHES: 0 DROPPED PREFETCHES: 0
PSCL5 PREFETCHES SAME FILL-ORIGIN LEVEL: 0 DIFFERENT FILL-ORIGIN LEVEL: 0

PSCL4 TOTAL     ACCESS:      53620  HIT:      53610  MISS:         10  HIT %:    99.9814  MISS %:  0.0186498   MPKI: 5e-05
PSCL4 LOAD TRANSLATION ACCESS:      22207  HIT:      22197  MISS:         10  HIT %:     99.955  MISS %:  0.0450308   MPKI: 5e-05
PSCL4 TRANSLATION FROM L1D PREFETCHER ACCESS:      31413  HIT:      31413  MISS:          0  HIT %:        100  MISS %:          0   MPKI: 0
PSCL4 PREFETCH  REQUESTED:          0  ISSUED:          0  USEFUL:          0  USELESS:          0
PSCL4 USEFUL LOAD PREFETCHES:          0 PREFETCH ISSUED TO LOWER LEVEL:          0  ACCURACY: -nan
PSCL4 TIMELY PREFETCHES:          0 LATE PREFETCHES: 0 DROPPED PREFETCHES: 0
PSCL4 PREFETCHES SAME FILL-ORIGIN LEVEL: 0 DIFFERENT FILL-ORIGIN LEVEL: 0

PSCL3 TOTAL     ACCESS:      59026  HIT:      58957  MISS:         69  HIT %:    99.8831  MISS %:   0.116898   MPKI: 0.000345
PSCL3 LOAD TRANSLATION ACCESS:      22739  HIT:      22670  MISS:         69  HIT %:    99.6966  MISS %:   0.303443   MPKI: 0.000345
PSCL3 TRANSLATION FROM L1D PREFETCHER ACCESS:      36287  HIT:      36287  MISS:          0  HIT %:        100  MISS %:          0   MPKI: 0
PSCL3 PREFETCH  REQUESTED:          0  ISSUED:          0  USEFUL:          0  USELESS:          0
PSCL3 USEFUL LOAD PREFETCHES:          0 PREFETCH ISSUED TO LOWER LEVEL:          0  ACCURACY: -nan
PSCL3 TIMELY PREFETCHES:          0 LATE PREFETCHES: 0 DROPPED PREFETCHES: 0
PSCL3 PREFETCHES SAME FILL-ORIGIN LEVEL: 0 DIFFERENT FILL-ORIGIN LEVEL: 0

PSCL2 TOTAL     ACCESS:      23180  HIT:      14571  MISS:       8609  HIT %:    62.8602  MISS %:    37.1398   MPKI: 0.043045
PSCL2 LOAD TRANSLATION ACCESS:      22810  HIT:      14201  MISS:       8609  HIT %:    62.2578  MISS %:    37.7422   MPKI: 0.043045
PSCL2 TRANSLATION FROM L1D PREFETCHER ACCESS:        370  HIT:        370  MISS:          0  HIT %:        100  MISS %:          0   MPKI: 0
PSCL2 PREFETCH  REQUESTED:          0  ISSUED:          0  USEFUL:          0  USELESS:          0
PSCL2 USEFUL LOAD PREFETCHES:          0 PREFETCH ISSUED TO LOWER LEVEL:          0  ACCURACY: -nan
PSCL2 TIMELY PREFETCHES:          0 LATE PREFETCHES: 0 DROPPED PREFETCHES: 0
PSCL2 PREFETCHES SAME FILL-ORIGIN LEVEL: 0 DIFFERENT FILL-ORIGIN LEVEL: 0

LLC TOTAL     ACCESS:     792320  HIT:     715412  MISS:      76908  HIT %:    90.2933  MISS %:    9.70668   MPKI: 0.38454
LLC LOAD      ACCESS:     418121  HIT:     361102  MISS:      57019  HIT %:     86.363  MISS %:     13.637   MPKI: 0.285095
LLC RFO       ACCESS:      96298  HIT:      77344  MISS:      18954  HIT %:    80.3173  MISS %:    19.6827   MPKI: 0.09477
LLC PREFETCH  ACCESS:          2  HIT:          2  MISS:          0  HIT %:        100  MISS %:          0   MPKI: 0
AGUS PREFETCH L1 MISS: 0
LLC WRITEBACK ACCESS:     259452  HIT:     258946  MISS:        506  HIT %:     99.805  MISS %:   0.195026   MPKI: 0.00253
LLC LOAD TRANSLATION ACCESS:      18445  HIT:      18017  MISS:        428  HIT %:    97.6796  MISS %:    2.32041   MPKI: 0.00214
LLC TRANSLATION FROM L1D PREFETCHER ACCESS:          2  HIT:          1  MISS:          1  HIT %:         50  MISS %:         50   MPKI: 5e-06
LLC PREFETCH  REQUESTED:          0  ISSUED:          0  USEFUL:          0  USELESS:          1
LLC USEFUL LOAD PREFETCHES:          0 PREFETCH ISSUED TO LOWER LEVEL:          0  ACCURACY: -nan
LLC TIMELY PREFETCHES:          0 LATE PREFETCHES: 0 DROPPED PREFETCHES: 0
LLC PREFETCHES SAME FILL-ORIGIN LEVEL: 0 DIFFERENT FILL-ORIGIN LEVEL: 0
LLC AVERAGE MISS LATENCY: 155.854 cycles
LLC RQ	ACCESS:     532871	FORWARD:          0	MERGED:          0	TO_CACHE:     532866
LLC WQ	ACCESS:     259452	FORWARD:          5	MERGED:          0	TO_CACHE:     259452
LLC PQ	ACCESS:          2	FORWARD:          0	MERGED:          0	TO_CACHE:          2

LLC Dense regions hint to LLC: 0

RAW hits: 2094297
Loads Generated: 48099750
Loads sent to L1D: 46005453
Stores Generated: 24697058
Stores sent to L1D: 24697059
Major fault: 0 Minor fault: 5748
Allocated PAGES: 5748
ucb ended
-----------------------------------------------------------------------------------------------------------------------------------------------------------------------------------------------------
Offsets elements: 1 -288223780699126124 18880338 -19198436 -267392 19465828 -19198434 -1465996287178 408 -408 1465996287176 -1465996286790 1465996019398 -1465996019784 394 1466015485218 -1466015485613 267394 -1 379 1465996611760 -1465996612139 1466015485613 -18873474 18873473 -19198433 267393 1465996612139 -324962 -1465996287151 1465996019759 -1465996286842 -332 1466015485606 -1466015483812 1465943427015 -1465943428504 -1730 1730 1466015485302 -1466015485603 -4 1465996605295 -1465996605295 1794 1465996603501 -1465996604963 1465943428477 -1465943430234 1425 -1465943428477 1465996481222 19004385 -1466015483809 1466015483810 225794 -1465996512672 -292 328 1465996604963 -1465996606690 -30 1465996606720 1465996482647 52 -1465996480942 1465996480890 19004384 -19004385 19004386 -2 -18880310 -1465996019759 267392 -1465996286878 36 -328 1465996605291 30 1465996482616 -1465996480889 1466015485273 -1466015487031 124073 18880310 -1466015485273 1465996480967 -1465996481299 1466015483812 -1466015485606 305 1489 -1797 1465943166667 -1465943166296 -1793 1430 1465996019776 19465826 -267393 -1465996286877 -1757 1465996482648 126 19004256 -18880311 332 -27 -308 8 -1465996017987 -1426 1465996479833 19005406 -1465996288599 1465996288598 19198435 -1466015485612 18873472 -19198435 1465943456442 53155697 -1465996612119 1465943181454 53401969 -53401969 -1465943184196 1465996608022 -21727 -4200 2 -1465996579374 371 1465996490071 -1465996490189 1465943181221 -1465943181440 -19 1465996583460 21825 -53423826 53397899 18906238 -18995168 15371 -8205 -7167 1465996490189 -1465996490422 1465996583423 53306919 116907 -53402099 -53306919 90982 -3 -7 5 18906237 -18988002 18988003 -1466015485577 1465996287142 -1465996287176 -371 406 -406 402 -399 397 -397 1465996286776 382 -382 410 -410 1465996287178 -1465996287179 -117600 -1465996494538 398 -381 1465996583439 345 28337 -4961 18878432 19198433 1465996287144 -1465996287170 1465943456434 -1465943456029 1465996286764 217632 -14359 18995156 -18980799 2021 -16381 -1465996490195 1465996506577 -1465996506796 1465996506796 -16383 -1465996490194 1465961096685 19198650 16211241 -16211241 -1465980295566 1465996506807 16211242 -16211242 35190017 -35190017 16194860 18995158 -1466015485607 385 1466015485222 -1466015485608 -324960 207390 -207389 377 -78 1727 1466015485268 -19004379 19004379 -1466015487026 18880305 -19004301 -1465996480967 1466015485269 -1466015485601 1466015485297 -1466015483808 1465943164870 -1465943168089 1465996495961 18991066 -18996154 -1033 -201241 -6 -6148 -1465996488411 1465996488411 -201236 19198423 1466015485608 -18873469 18873469 -1466015485592 23376 4962 18873470 -1466015485212 -16 1465996286796 -1465996287175 34 1465996286767 386 -386 1465996494549 -1465996494163 1466015485223 -19198430 -1465996287143 -34 400 -401 1466015485611 -18873473 -1465996611754 1466015485226 -1466015485609 401 1465996494135 18991070 -1465996287144 1465996287143 -52830736 -274968 72304137 -1466015485276 1466015485607 -1466015483813 -1465943166359 -1466015485604 -1429 -1794 -1465943166332 1462 -1425 1465996482646 -1465996479424 1465943164867 72318943 31746 -225795 -1465943456438 1465996506826 -1465996506494 -1790 1465996480201 125094 -3219 3219 1465996478407 -1465996478407 1465996481626 -1465996479869 1465996480889 -194050 -1466015483811 1465996285378 225793 -1465996512973 1466015485614 -1466015485234 1465996286798 -19122320 19122322 -1466015485599 1465996583457 28666 -28682 18878436 -18902141 18902141 -18873475 18873474 -19037152 5130 -1465996453572 23375 4961 18873475 -19032026 19032025 -1466015485614 1466015485616 -18873477 -19037154 -1465996448461 1465996612138 -1465996611730 -403 18 1465996612121 -4962 -23720 18878434 18873476 -1466015485313 1466015485313 -1466015485615 -1465996494541 1465996494134 -1465996494540 396 1465996488023 18997194 -1465996611761 1465996494162 18991075 -72304118 -1465943181119 1465996286801 -53105682 53313043 -1465996494204 -1466015485303 1466015485303 -1466015483814 1466015483815 -1466015485605 1465943166664 53438631 72318944 -19004386 18972641 -18991073 -207363 1465996287177 6 -1465996287162 1465996587447 17806 288223780709529729 -10435167 -2200619185772 2200619185795 -56471 56471 3 82781 5220 -5220 -26337 26336 5222 -12732876 -2200606360183 2200619087838 5219 -12727660 12727660 -2200619177768 2200619177769 -12727657 -5 8272344 -8272345 12732882 -31558 2200619182988 -5217 -12727661 12732877 -2200619182729 2200606449852 12742916 -2200619086044 2200619086046 -41594 31547 10047 10434892 -2200629472974 2200619069629 -31547 31548 10049 10 -20 -10069 10044 22 -10064 10051 -10047 10039 17 2783 -2200619088890 2200619088892 -2200619195766 2200619195766 -175768 162918 10061 10052 14 -14 12 -10051 -10046 10046 4 -2200619086047 2200619086068 -59675 49633 16 -2200619109792 2200619109785 -2200619086042 -23978 2200614636860 14868626 -14868626 -10413918 -4454708 4463113 -7965 7966 -8406 8403 -2200619057519 2200614594396 14868639 -14868639 -10351703 -4516936 4516904 -53780 -3744223409 3744223409 -4463126 4463127 53835 -62237 8404 -8404 18452 -10048 10045 2200619067593 8405 -18457 18474 -18475 18455 -2200619110616 2200619110616 -10067 10072 -18449 18454 -2200619086048 19 -2200619109805 2200619109806 -10060 -2200619100550 2200619100553 10063 -10061 -8410 8406 -8405 18457 -288223780699444208 288223780699444206 -9 18477 -18477 8413 -17 20 -2200619091335 2200619109790 7 -2200619109764 2200619109755 -2200619109791 2200619099735 10056 -10055 10053 8401 10070 -18474 -18476 18471 -18472 18475 -18 -18454 -2200619091334 -8403 -2200619089482 2200619097883 -2200619100544 2200619092143 18476 -10075 -8400 62239 -62240 8399 -8399 -8398 18472 -18473 18469 -18452 8395 -8397 18453 18458 -18451 18446 -18448 18467 -10072 -8396 -18455 -21 13 -2200619109787 2200619109805 10074 -2200619192832 2200619192827 -11 -18446 18465 -18464 -2200619110617 2200619110610 -2200619109765 2200619109769 -2200619110612 2200619100544 10067 -18468 -41239 10455857 -10414618 18468 -18466 18464 2200619192816 11 -18459 2801 2200619088890 -175761 113286 49618 -8395 8394 -8394 2793 2200619174515 -2791 -172963 113279 41231 62212 24 18447 -18453 -53820 -49594 41200 21252 -151866 130613 18449 -53821 -139008 130611 -53819 -2200619091483 162 2200619091320 -62213 8387 -2200619099878 2200619099875 -180193 -2200618919662 2200619099857 -8390 -103397 -2200619133238 2200619182809 -8386 8390 -8389 -2200619091321 8385 53827 -53825 -2200619099856 2200619091468 53828 -2200619099881 2200619099880 -2200619099877 2200618975779 -2200618976436 2200619093111 7426 -7426 -7427 7427 7423 -7423 -2200619092431 -2200619099858 2200619091469 964 -965 963 -24108 24111 61247 -2200619236633 2200619236633 -61247 965 62213 -61249 103190 -95772 -7420 -53826 -7421 7421 7420 -49567 42148 -42149 49570 -49569 42145 31527 10403364 -10403364 -2200619069610 2200619062192 -2200619093112 2200619093112 104155 -95773 -7425 7425 -139004 139004 21253 -21253 -41238 62490 10393367 10414619 -10414620 -41200 -89408 130609 -95763 -139002 130607 49574 -139000 139000 -8393 -2805 -175760 62481 -21252 -2200619174514 106876 -175770 -2200619019998 2200619174516 62236 -62238 -21250 -23146 44398 -2200619088812 2200618913042 216730 -658590 598622 -2247 2243 -2245 -2200619092145 2200619110599 -16207 -2244 8389 -8391 -62236 -23145 85382 -216754 154516 21254 -154512 10566258 -10566258 162899 -62512 -38440 -61952 100394 10465870 1913 -10413661 -154523 216759 -154519 -2200619027247 2200619181766 8386 -162910 100399 10467783 -10413662 -2200619091568 2200618937047 154523 -154518 2200619181765 18451 -216727 24179 192548 -53828 -162894 154509 10411747 -2200629503697 2200629505724 -10405391 -8384 10568298 -2200629505339 2200629505339 -2022 2200629475001 -10405390 10406225 -10406226 -62509 62510 -162912 10568182 -10436805 31533 -31535 2200619038082 2200629473275 -11565845 1130652 -2200629503894 2200619069002 -2200619038082 2200629472974 -10403358 10403661 -10435195 -2200619069102 100 614 2200629505302 -2200629505302 10405386 -10413771 -154522 10568290 -10405387 -8381 -2200619091571 2200619091569 154524 154514 241 2200619099710 -162905 154522 -2200619091328 2200619091329 -154509 154510 -41240 -10414617 -62212 -103452 103452 62237 10414621 -10352409 -41199 -89416 130615 8376 53836 -53835 -138995 138992 -8380 10455808 -10406250 -138991 138990 -8379 -41231 41229 40961 -62214 -21254 -154510 216722 -103414 -89404 130605 -7411 -131570 234760 -234758 130603 7410 -49559 49560 -138979 138979 -8374 -2200619104608 2200619050770 -2200619099744 -82959 2200619174329 103453 10352404 62214 -62215 -40962 -175762 -2200619153551 2200619099709 -2200619050778 3548214 2200615512670 -10104 10102 43732 -43725 -18489 -154508 113340 41169 -963 18481 -10110 -8373 8373 10104 10393270 -10393268 -18478 18495 -18496 -43741 43734 -2200619153547 2200619109832 -10126 -18480 18478 -18479 18488 2763 -12880 -162881 41223 18480 43717 -43717 -18497 18497 43718 -43713 43713 10130 -18498 18500 -2200619076960 2200619076965 -18502 -59716 -72465798979 72465858698 18479 -2200619067597 2200619075967 10109 10124 -18493 18494 9 -2200619110652 2200619110641 -18500 8370 10126 18498 -18503 18501 -15973 -2200619092010 2200619097853 -2200619097852 2200619107981 -2200619110641 2200619110653 -12 -2200619110629 2200619094670 15969 -10127 10134 -10131 10133 -10 -2200619109799 2200619109779 -2128153251929 2200619110647 -15959 15974 -15974 15959 5845 -5846 15982 -15981 15977 -15979 15976 -15976 5847 -5847 5842 10132 -10130 5846 5843 15955 -15951 -2200619070122 2200619086076 -15956 5841 -5839 43072 -43071 -3744217550 3739760300 -3754628939 4463086 -3744223386 3744223385 -5841 -2200619094103 -3739760354 3754628980 -3754628980 3739760354 4463075 -3744223428 3744223432 10137 -2200619110646 2200619110646 -10133 -10128 -2200619099707 -810 -10135 10135 -15 2770 2200619182881 -10134 -10132 10136 -2200619109794 2200619099669 -2200619109795 2200619109801 -2200619109801 2200619099666 -10124 10129 -10129 -10137 10127 2200619109795 -10125 10131 -23 -59706 -2200619050073 2200619109803 -2200619100513 2200619110648 -2200619109837 2200619109821 -10118 10114 -8 -12773587 12763480 10123 -2200619195765 2200619193008 2200619099672 10125 2200619110640 10115 85670 -95782 95782 -75756 11567 -87403 87401 -87401 87402 87403 -31594 -95783 95783 -95781 10108 -10107 10106 -10105 -49612 49614 10406242 -10406242 10405388 -2200619100530 2200619100533 10405382 -10405382 10405265 -10405268 -31530 10436902 -10405370 10403361 2200619069614 -31532 31534 -31534 31535 -8402 -2200619110611 2200619110609 -10066 -41234 -72465798969 72465848606 -10070 10066 -2200619109806 2200619109807 -2200619110609 -10065 10071 -2200619109807 -2200619110599 2200619110603 -12742925 12732869 41594 10048 2200619086049 -10050 -12713836 -13824 13824 12719056 -12732871 12727651 -1203558 1208777 -5218 -26309 31530 -12732881 -5222 5221 31562 18880336 -19198428 -1465996286791 1465996286791 207384 1465996286769 19198434 18991047 1466015485615 -18873476 18873477 1465996448460 163679 -163678 5129 1465996583784 -345 28682 18878437 -5130 -36339 -1465996412102 1465996583797 21458 18880339 288223780690649390 -2200619185778 2200619185778 23 88001 -88001 -87999 82554 5445 -5446 -2200619094897 33466 -10092 -2200619066871 2200619066876 -31552 -2200619068787 33467 2200619076963 31552 -31519 31520 -5452 5448 -5448 5449 -5450 5450 -35921 30704 -2200619177767 2200619177770 -12727663 12742919 -12742919 -2200606449853 2200606449853 12742920 -10044 10040 -24 -2200619086043 2200619086043 25 -59694 59698 -10045 -35918 35923 -35690 35687 -35687 30576 -2200619177874 2200606450377 -2200606450123 2200619192592 -9882 9868 -9885 9887 -25 -9861 -2200619076002 2200619040316 -13948 13948 30240 -30240 35689 -5449 5447 -31557 -19073491 36339 -125956 125956 -79876 -5289 -78359 11967 -11968 11968 19188707 -1466015485584 1465996587440 -2200629620940 2200619185773 88005 -88005 82884 5117 -5116 -26441 26440 5118 -12732606 -2200606360453 2200619087942 -12713847 12718961 -12732599 12732599 -5113 -1203662 1208778 -2200619177872 2200619177873 -12727491 8272074 -8272075 12732612 2200619182987 -5115 5112 -12732607 12732608 -2200619182730 2200606450122 12742466 -2200619085864 2200619085867 -41415 41414 -41414 10403344 2200619069630 9863 21 -15583 15586 -9884 -5701 5704 37068 -37068 9880 -2200619110442 2200619100550 9885 -15587 15566 -15568 18549 -12851 -5698 -25849 25850 15568 -2200619085863 2200619085866 -9868 5698 42797 -37098 -5699 5697 9886 -9864 9864 -2200619109621 2200619109625 -9889 -31549 -2200619085867 2200619085869 -10403344 -2200619069630 2200619069631 -13647 13647 12718963 -12732601 12732600 -5114 1177249 -5117 -19200676 19188708 -1465996284938 1465996296904 -1466015485218 1466015485219 -1466015485205 -22 1465996284936 -11966 1466015485612 -1466015485233 -327201 11966 -11967 -327202 -1465996284911 1465996296879 -1465996284602 -1466015485301 1466015483813 -1466015485302 1465943428504 1429 1465943428809 -1465943427015 -1462 -53052412 72056797 -196288 228034 -19004333 124021 -1466015485274 -19200673 -1465996296879 -1465996284638 -1489 1466015485301 -72318942 1422 1465996296533 -1465996296896 1465996296896 19188706 -1465996284637 124072 1465996481017 -1465996481349 -19005405 -1465996481626 1466015487032 -1466015485610 1465996284929 -1465996284566 1465996284565 -19200675 19200674 -1466015485611 1465996284937 327202 1465943456443 53155696 -53401946 -1465943184219 -53423803 -1465943181496 1465996583572 -1465996583201 1465996579001 -88932 1465943181244 -1465943181463 1465943181482 53401978 -53401978 53423803 88930 -88929 -88931 1465996505561 -1465996497589 53306896 -53402076 -53397876 90981 1465996284902 -1465996284936 -28 37 -402 1465996284541 28 1465996284938 -1465996284939 1465996611740 -1465996494521 18878433 -19200674 19200673 1465996284904 -1465996284930 1465943456435 52828494 -1465996284524 1465996504396 18980798 -18995158 14358 1465961134145 12109936 23262495 -23262495 -1465973244312 -23262496 23262496 42241271 -42241271 23246114 -327200 209615 -1465996494551 1466015483808 -72318938 53327872 -1465996495961 1466015487027 -203482 203476 -203481 1465996494543 -6132 -203476 19200663 -18873470 -1465996612121 1465996284556 -1465996284937 32 -1465996284526 1466015485609 -1466015485223 -19200670 209611 -209612 -1465996284903 -400 -18873471 -384 -1466015485210 1465996611732 209604 -1465996494508 1465996284903 -52828495 -274946 72304114 -72318943 -228035 -1465943456439 1465996506494 -1465996506521 1465996478404 196290 -1465996481228 1465996512973 -228033 1465996284558 -19122318 19122320 18902140 163678 -1465996611744 -409 1465996607159 23721 -23376 -302 -407 1465996488419 6122 117598 -72304141 -1465943181096 1465996284561 -53103465 53313066 1466015483814 -209603 1465996284943 -1465996284916 88004 -88004 12727489 -2200619087942 2200619093057 -12727494 12727494 -2200619177873 2200619177875 4460537 -12727497 12732607 2200619044452 10403345 9869 9871 -9859 9862 2963 -2200619088892 -106876 2200619019998 172808 9872 9874 -9873 -9870 -9866 15 -2200619085882 2200619085888 -59495 9867 -2200619109605 23743 -10413478 -4455148 4455044 8069 -7966 7963 3744223410 -4463127 -3739760283 3744277213 -61765 7965 -7963 17832 9865 -17829 -2200619068033 2200619075998 -17837 17854 -17855 17835 -2200619110436 2200619110436 -9887 9892 17834 -2200619085883 2200619085886 -2200619109626 -9880 -7971 17837 -288223780699446448 288223780699446446 9891 -17857 7973 -9883 9866 17857 -2200619109610 2200619109605 -2200619109611 9876 -9875 -2200619099700 2200619109573 7961 9890 17855 -17856 17851 -17852 -17836 -2200619109608 -2200619089922 2200619097884 -2200619100543 2200619092583 17856 -9895 -7960 61763 -61770 7959 -7959 53809 -53808 -7958 17849 -17832 7955 -7957 17836 -17834 -17831 -17828 17847 -9892 17853 -17851 17833 9894 -2200619192652 2200619192636 17845 -17844 17852 -2200619110437 2200619110430 -2200619109585 2200619109587 -9890 2200619110431 -17845 17848 -41679 59527 -17846 10414178 -10396334 2200619192647 -17839 17828 2981 162904 -49618 41663 7954 -7954 2973 -20811 17838 -172789 -2200619020006 2200619174956 -41670 103435 -43938 -17833 61740 -53788 41640 20812 131053 17829 7951 53789 131051 7953 53787 -61741 -2200619091923 2200619091760 61741 -53794 -2200619099876 2200619099878 -180195 172245 -2200619091908 2200619153648 -103365 -7946 7950 -7949 7949 -2200619091761 7945 53795 -53793 -7947 -2200619091909 2200619091908 -657 2200618973449 127088 -7407 7407 -7406 7406 7404 -7403 7402 -2200619092451 2200619099858 -7405 -545 542 7400 -31528 85326 -61195 -2200619175406 2200619236601 61195 545 -61197 7398 95718 -95715 -7399 -7401 7401 53794 -7400 49569 -42168 42166 -24128 2200619062212 -2200619092587 2200619196248 -95718 7405 -7955 20813 -20813 10393368 -10414180 10414179 -10455819 49594 131049 95709 -95708 131047 -49575 49576 -7953 2985 -2974 -20812 -62483 -2200619026409 154958 61765 -61766 -20810 -23586 216698 -596817 -1805 -2200619092585 2200619094392 16027 -16027 -1804 1805 -7951 85350 -216722 154956 20814 -154952 -162904 10566264 -10465872 -10506225 93004 -154963 154962 -61764 -154959 154959 -2200619182206 2200619182206 7946 61764 7947 -10413222 -2200619092008 2200619092010 -154958 154963 -2200619182205 2200619182205 17831 -154955 216695 -53796 24174 130775 10411307 -7944 10413335 2200618937041 10405391 -2200629475000 10406226 -10468734 -10413336 -154962 -2200619099952 2200619092011 -154954 -2200618937057 -2200618936806 2200619091770 61766 -154949 154950 -41680 41680 -10352437 -61740 10414182 -10352441 -41639 131055 7936 53804 -53803 -7940 -41624 49557 -7388 7389 10406249 -10406247 -7939 -41671 41669 61742 -40929 -20814 -154950 216690 -103382 131045 -7391 -131590 234706 -234704 131043 7390 -7934 -53806 -2200619050769 -48975 -82960 2200619174768 -41681 41681 10414177 -10352436 -61743 -40928 -2200618936829 3562472 2200615498234 -9924 9924 -9925 9929 -9933 53806 544 -155492 41609 17861 -9930 -7933 7934 10393450 -10393448 -17858 17875 -17876 -43889 43882 -43863 -2200619109652 2200619099706 -17860 17858 -17859 17868 2943 -2200619088891 2200618913130 17880 43865 -43865 -17877 17877 43866 43861 -53811 9947 -17881 17860 -17882 -2200619058903 2200619076761 -59536 72465858518 17862 7930 -2200619075966 2200619085910 -17873 17873 -17874 -2200619110461 2200619110461 -9950 -7930 7931 -7932 17878 -17883 17883 17863 -2200619107803 2200619092186 -2200619092186 2200619107801 2200619110467 -13 -2200619110449 2200619094846 15613 -9947 9954 -9951 9953 -2200619109599 2200619050063 -2200619050908 -72465858540 72465858520 -15603 15618 -15618 15603 -5670 15626 -15625 15621 -15623 15620 -15620 5671 -5671 5666 -5668 5670 5667 9936 15599 -9929 9933 -15595 15598 -15601 -2200619070295 2200619070296 5665 -5663 42800 -42799 -3744217726 -5665 -2200619094279 3744223428 9957 -2200619110466 2200619110466 -9953 -9948 -9955 9955 2950 -9954 -9945 9956 -2200619099669 2200619099670 9946 -9952 9950 -9944 9952 9949 9928 -2200619109598 2200619050073 59550 -2200619110468 2200619110465 -2200619109656 2200619109641 -9938 9934 -9935 9943 -12773320 12773333 2937 2200619192828 -2200619109615 9945 2200619110460 9935 85790 -75686 11559 -87404 87405 -31596 95722 -95723 95723 -95721 -9927 9926 49615 10406243 2200619100534 10405383 -7962 -2200619110431 2200619110429 -9886 17830 -41674 59511 -72465858480 72465858480 2200619109628 -2200619110429 -9888 9893 -2200619109619 2200619109627 -2200619110419 2200619110423 -9876 -12732598 12732601 -9867 -12713848 12732610 5115 -1208777 1203662 -26413 -12732611 -5118 -31559 31563 -19200668 -1465996284551 1465996284552 209614 -209613 -18991060 -1465996494143 1465996284529 209608 18991063 87999 -5444 5446 -10093 
Potential of Offsets elements: 1655.18 28.178 28.178 28.178 28.178 28.178 28.178 28.178 28.178 29.178 28.178 28.178 28.178 28.178 28.178 36.178 255.178 28.178 1655.27 28.178 32.178 198.178 28.178 28.178 36.178 28.178 28.178 28.178 28.178 28.178 28.178 28.178 28.178 28.178 28.178 60.178 28.178 28.178 28.178 28.178 113.178 639.178 28.178 28.178 28.178 28.178 136.178 28.178 28.178 28.178 28.178 55.178 83.178 28.178 28.178 28.178 31.178 33.178 28.178 28.178 28.178 108.178 91.178 28.178 28.178 28.178 65.178 59.178 28.178 28.178 1114.18 124.178 28.178 28.178 28.178 368.178 93.178 60.178 28.178 28.178 28.178 112.178 60.178 28.178 28.178 28.178 59.178 28.178 28.178 28.178 28.178 91.178 219.178 28.178 28.178 28.178 70.178 28.178 28.178 28.178 28.178 238.178 33.178 28.178 28.178 28.178 252.178 53.178 28.178 843.178 28.178 100.178 28.178 28.178 28.178 28.178 28.178 165.178 94.178 28.178 28.178 28.178 46.178 28.178 28.178 28.178 28.178 31.178 28.178 28.178 2303.12 28.178 119.178 28.178 28.178 28.178 28.178 93.178 28.178 28.178 28.178 28.178 163.178 28.178 28.178 28.178 28.178 40.178 28.178 28.178 28.178 28.178 46.178 28.178 28.178 1654.18 1165.18 410.178 28.178 28.178 28.178 28.178 28.178 28.178 28.178 28.178 28.178 28.178 112.178 33.178 28.178 28.178 28.178 86.178 29.178 28.178 28.178 28.178 39.178 41.178 28.178 28.178 29.178 42.178 55.178 28.178 28.178 28.178 28.178 28.178 28.178 28.178 28.178 28.178 28.178 28.178 28.178 28.178 42.178 28.178 28.178 28.178 28.178 47.178 28.178 28.178 28.178 28.178 28.178 28.178 28.178 28.178 28.178 28.178 28.178 28.178 28.178 28.178 68.178 28.178 28.178 28.178 28.178 28.178 42.178 28.178 28.178 28.178 48.178 28.178 28.178 28.178 28.178 71.178 28.178 28.178 28.178 28.178 118.178 32.178 28.178 28.178 28.178 31.178 29.178 425.178 28.178 28.178 40.178 28.178 28.178 28.178 28.178 104.178 28.178 28.178 28.178 34.178 135.178 625.178 28.178 28.178 42.178 28.178 28.178 28.178 28.178 28.178 51.178 28.178 28.178 378.178 30.178 78.178 28.178 28.178 28.178 35.178 346.178 28.178 28.178 28.178 28.178 28.178 28.178 28.178 28.178 64.178 309.178 28.178 28.178 28.178 84.178 100.178 112.178 28.178 28.178 28.178 32.178 49.178 28.178 28.178 28.178 28.178 100.178 28.178 28.178 28.178 37.178 163.178 28.178 28.178 28.178 39.178 64.178 28.178 28.178 28.178 28.178 28.178 28.178 28.178 28.178 28.178 28.178 28.178 28.178 31.178 28.178 80.178 28.178 28.178 28.178 37.178 136.178 28.178 28.178 30.178 32.178 64.178 28.178 28.178 34.178 35.178 55.178 28.178 28.178 40.178 172.178 40.178 28.178 438.178 32.178 46.178 37.178 28.178 28.178 28.178 52.178 91.178 28.178 28.178 28.178 28.178 28.178 48.178 28.178 28.178 28.178 28.178 30.178 28.178 28.178 28.178 43.178 67.178 28.178 28.178 28.178 209.178 130.178 28.178 28.178 28.178 34.178 73.178 28.178 28.178 899.178 28.178 29.178 28.178 28.178 60.178 28.178 30.178 28.178 28.178 976.178 28.178 28.178 28.178 28.178 28.178 28.178 28.178 28.178 28.178 28.178 28.178 28.178 28.178 28.178 28.178 612.178 28.178 28.178 28.178 28.178 51.178 64.178 28.178 28.178 28.178 28.178 28.178 28.178 28.178 60.178 156.178 28.178 33.178 73.178 28.178 206.178 49.178 28.178 243.178 537.178 28.178 28.178 169.178 28.178 28.178 28.178 28.178 336.178 28.178 33.178 28.178 28.178 32.178 68.178 28.178 28.178 28.178 363.178 138.178 566.178 28.178 28.178 28.178 728.178 28.178 28.178 28.178 32.178 61.178 28.178 28.178 28.178 30.178 28.178 34.178 28.178 28.178 28.178 28.178 28.178 28.178 28.178 298.178 28.178 28.178 28.178 28.178 28.178 28.178 28.178 28.178 28.178 28.178 28.178 28.178 28.178 28.178 28.178 28.178 28.178 227.178 28.178 28.178 28.178 28.178 28.178 28.178 28.178 28.178 28.178 28.178 28.178 28.178 28.178 28.178 113.178 28.178 28.178 28.178 76.178 36.178 28.178 28.178 28.178 28.178 28.178 28.178 28.178 28.178 483.178 28.178 28.178 28.178 104.178 487.178 28.178 28.178 392.178 28.178 28.178 28.178 28.178 28.178 28.178 28.178 28.178 28.178 29.178 29.178 28.178 28.178 28.178 77.178 28.178 28.178 28.178 28.178 28.178 37.178 28.178 28.178 28.178 28.178 28.178 28.178 28.178 28.178 28.178 28.178 28.178 28.178 28.178 28.178 28.178 28.178 28.178 28.178 28.178 28.178 28.178 28.178 28.178 28.178 215.178 261.178 28.178 28.178 28.178 28.178 28.178 514.178 28.178 28.178 28.178 28.178 28.178 28.178 28.178 28.178 28.178 28.178 28.178 28.178 29.178 28.178 28.178 28.178 28.178 28.178 234.178 28.178 28.178 28.178 28.178 30.178 47.178 28.178 28.178 28.178 28.178 28.178 28.178 28.178 28.178 28.178 28.178 457.178 28.178 28.178 28.178 42.178 28.178 28.178 28.178 28.178 28.178 28.178 30.178 28.178 28.178 28.178 28.178 28.178 28.178 28.178 28.178 28.178 28.178 28.178 56.178 28.178 28.178 28.178 28.178 28.178 28.178 28.178 28.178 28.178 28.178 28.178 28.178 28.178 28.178 28.178 75.178 28.178 28.178 28.178 28.178 28.178 28.178 28.178 28.178 28.178 28.178 28.178 28.178 28.178 28.178 28.178 28.178 28.178 28.178 28.178 28.178 28.178 28.178 28.178 28.178 28.178 28.178 28.178 28.178 28.178 28.178 28.178 28.178 62.178 28.178 28.178 28.178 79.178 28.178 55.178 28.178 28.178 58.178 28.178 28.178 28.178 28.178 28.178 28.178 28.178 28.178 28.178 28.178 28.178 28.178 28.178 28.178 28.178 28.178 28.178 28.178 28.178 31.178 32.178 28.178 28.178 28.178 140.178 28.178 28.178 28.178 29.178 28.178 28.178 28.178 28.178 31.178 28.178 28.178 28.178 28.178 28.178 88.178 28.178 28.178 28.178 28.178 32.178 28.178 28.178 28.178 37.178 28.178 28.178 28.178 28.178 28.178 28.178 28.178 28.178 28.178 28.178 28.178 28.178 28.178 28.178 49.178 44.178 28.178 28.178 28.178 28.178 55.178 28.178 28.178 28.178 28.178 32.178 28.178 28.178 28.178 28.178 40.178 28.178 28.178 28.178 28.178 28.178 28.178 28.178 28.178 28.178 28.178 28.178 114.178 28.178 28.178 28.178 28.178 99.178 28.178 28.178 28.178 28.178 91.178 32.178 28.178 28.178 53.178 45.178 28.178 28.178 28.178 28.178 68.178 52.178 48.178 28.178 28.178 34.178 42.178 38.178 33.178 31.178 42.178 28.178 28.178 28.178 28.178 46.178 28.178 28.178 28.178 28.178 28.178 28.178 28.178 28.178 28.178 28.178 28.178 28.178 28.178 57.178 36.178 28.178 28.178 28.178 28.178 28.178 28.178 28.178 28.178 28.178 28.178 28.178 28.178 28.178 28.178 32.178 28.178 28.178 28.178 28.178 42.178 28.178 28.178 28.178 28.178 38.178 28.178 28.178 28.178 28.178 28.178 28.178 28.178 28.178 28.178 28.178 28.178 28.178 28.178 28.178 28.178 28.178 28.178 28.178 30.178 33.178 28.178 28.178 28.178 28.178 36.178 71.178 28.178 28.178 28.178 28.178 28.178 28.178 28.178 67.178 28.178 28.178 28.178 28.178 28.178 28.178 28.178 28.178 28.178 28.178 28.178 32.178 28.178 28.178 28.178 28.178 28.178 28.178 28.178 28.178 28.178 28.178 28.178 28.178 28.178 28.178 28.178 28.178 28.178 28.178 28.178 28.178 28.178 32.178 28.178 28.178 28.178 113.178 28.178 28.178 28.178 28.178 28.178 28.178 28.178 28.178 28.178 28.178 44.178 28.178 28.178 28.178 36.178 28.178 28.178 28.178 28.178 28.178 28.178 28.178 28.178 292.178 28.178 28.178 28.178 28.178 28.178 28.178 28.178 28.178 28.178 28.178 60.178 28.178 28.178 28.178 28.178 572.178 28.178 28.178 28.178 28.178 28.178 28.178 28.178 340.178 28.178 28.178 28.178 28.178 28.178 28.178 28.178 28.178 28.178 28.178 28.178 28.178 28.178 28.178 28.178 28.178 28.178 28.178 28.178 28.178 28.178 28.178 28.178 28.178 28.178 28.178 28.178 28.178 28.178 28.178 28.178 28.178 28.178 28.178 28.178 28.178 43.178 28.178 28.178 28.178 28.178 34.178 28.178 28.178 28.178 28.178 28.178 28.178 28.178 28.178 28.178 28.178 73.178 29.178 28.178 28.178 271.178 28.178 28.178 28.178 28.178 28.178 28.178 28.178 28.178 34.178 28.178 72.178 28.178 28.178 28.178 28.178 28.178 28.178 28.178 28.178 165.178 28.178 28.178 28.178 28.178 28.178 28.178 28.178 28.178 28.178 303.178 29.178 28.178 28.178 28.178 28.178 62.178 28.178 28.178 28.178 28.178 28.178 28.178 28.178 28.178 28.178 28.178 28.178 28.178 28.178 28.178 28.178 28.178 28.178 28.178 28.178 28.178 28.178 28.178 28.178 28.178 55.178 49.178 28.178 28.178 28.178 49.178 31.178 28.178 40.178 28.178 28.178 34.178 28.178 34.178 32.178 40.178 68.178 28.178 28.178 28.178 28.178 28.178 28.178 28.178 28.178 28.178 28.178 28.178 28.178 28.178 28.178 28.178 28.178 28.178 28.178 28.178 28.178 28.178 28.178 28.178 28.178 28.178 28.178 28.178 28.178 28.178 28.178 28.178 28.178 28.178 56.178 28.178 42.178 28.178 28.178 28.178 28.178 28.178 28.178 28.178 28.178 28.178 28.178 28.178 112.178 28.178 28.178 36.178 28.178 36.178 28.178 28.178 32.178 30.178 32.178 28.178 28.178 29.178 28.178 34.178 28.178 28.178 44.178 47.178 42.178 28.178 28.178 31.178 28.178 28.178 28.178 28.178 36.178 28.178 28.178 28.178 28.178 32.178 28.178 28.178 28.178 28.178 348.178 28.178 28.178 28.178 28.178 666.178 28.178 28.178 28.178 28.178 28.178 28.178 28.178 28.178 28.178 28.178 28.178 28.178 180.178 28.178 28.178 112.178 28.178 28.178 28.178 28.178 28.178 28.178 28.178 28.178 28.178 28.178 28.178 28.178 28.178 28.178 28.178 28.178 28.178 497.178 28.178 28.178 28.178 28.178 28.178 73.178 28.178 28.178 28.178 28.178 136.178 28.178 28.178 28.178 28.178 31.178 28.178 198.178 28.178 28.178 28.178 28.178 28.178 28.178 28.178 38.178 31.178 28.178 28.178 28.178 28.178 28.178 28.178 28.178 28.178 28.178 28.178 28.178 28.178 28.178 28.178 28.178 28.178 28.178 28.178 28.178 28.178 28.178 28.178 28.178 42.178 28.178 28.178 28.178 28.178 54.178 28.178 28.178 30.178 28.178 28.178 28.178 28.178 37.178 28.178 28.178 75.178 28.178 28.178 28.178 28.178 28.178 28.178 28.178 28.178 28.178 38.178 28.178 28.178 28.178 28.178 28.178 46.178 28.178 28.178 28.178 28.178 28.178 28.178 28.178 28.178 28.178 28.178 28.178 28.178 28.178 28.178 28.178 28.178 28.178 28.178 312.178 28.178 28.178 28.178 28.178 46.178 28.178 28.178 28.178 28.178 28.178 28.178 28.178 28.178 28.178 28.178 28.178 28.178 28.178 28.178 32.178 94.178 28.178 28.178 28.178 28.178 28.178 28.178 28.178 28.178 28.178 28.178 28.178 28.178 28.178 28.178 64.178 30.178 28.178 28.178 28.178 56.178 28.178 28.178 28.178 28.178 42.178 28.178 28.178 28.178 28.178 36.178 148.178 28.178 28.178 28.178 28.178 28.178 28.178 28.178 28.178 28.178 39.178 28.178 28.178 28.178 29.178 28.178 28.178 28.178 28.178 28.178 373.178 28.178 28.178 28.178 28.178 46.178 28.178 28.178 28.178 28.178 36.178 28.178 28.178 28.178 28.178 37.178 28.178 28.178 28.178 28.178 32.178 28.178 28.178 28.178 28.178 46.178 28.178 28.178 28.178 28.178 41.178 30.178 28.178 28.178 45.178 28.178 28.178 28.178 28.178 29.178 28.178 28.178 28.178 28.178 28.178 28.178 28.178 28.178 28.178 28.178 30.178 28.178 28.178 28.178 28.178 28.178 28.178 28.178 28.178 28.178 28.178 28.178 28.178 28.178 28.178 52.178 30.178 28.178 28.178 28.178 28.178 28.178 28.178 28.178 28.178 28.178 28.178 28.178 28.178 28.178 502.178 28.178 28.178 28.178 28.178 28.178 28.178 28.178 28.178 163.178 39.178 28.178 28.178 28.178 28.178 28.178 28.178 28.178 28.178 38.178 28.178 28.178 28.178 28.178 29.178 28.178 28.178 28.178 28.178 28.178 29.178 28.178 42.178 28.178 28.178 31.178 32.178 37.178 28.178 28.178 28.178 73.178 30.178 28.178 28.178 28.178 28.178 28.178 28.178 28.178 28.178 28.178 28.178 28.178 28.178 28.178 28.178 32.178 28.178 28.178 28.178 28.178 30.178 28.178 28.178 37.178 38.178 28.178 28.178 28.178 28.178 28.178 28.178 32.178 36.178 28.178 28.178 28.178 28.178 28.178 28.178 143.178 28.178 28.178 28.178 28.178 28.178 28.178 28.178 28.178 28.178 28.178 28.178 28.178 28.178 28.178 28.178 28.178 28.178 28.178 28.178 28.178 28.178 28.178 28.178 28.178 28.178 28.178 28.178 28.178 28.178 28.178 28.178 28.178 28.178 28.178 28.178 28.178 28.178 28.178 28.178 28.178 28.178 28.178 28.178 28.178 28.178 29.178 28.178 28.178 28.178 28.178 28.178 28.178 28.178 28.178 28.178 28.178 28.178 28.178 28.178 28.178 28.178 28.178 28.178 49.178 28.178 28.178 28.178 28.178 28.178 28.178 28.178 28.178 28.178 28.178 28.178 28.178 28.178 28.178 28.178 28.178 28.178 28.178 28.178 28.178 28.178 28.178 28.178 28.178 28.178 28.178 28.178 28.178 28.178 28.178 28.178 28.178 28.178 28.178 28.178 28.178 28.178 28.178 28.178 28.178 28.178 28.178 28.178 28.178 28.178 28.178 28.178 28.178 45.178 32.178 28.178 28.178 28.178 28.178 28.178 28.178 28.178 30.178 28.178 28.178 28.178 28.178 28.178 28.178 28.178 28.178 28.178 28.178 28.178 28.178 28.178 28.178 28.178 28.178 28.178 28.178 28.178 28.178 28.178 28.178 28.178 28.178 28.178 28.178 28.178 28.178 28.178 28.178 28.178 28.178 28.178 28.178 28.178 28.178 28.178 28.178 28.178 28.178 28.178 28.178 28.178 28.178 28.178 28.178 28.178 28.178 28.178 28.178 72.178 28.178 28.178 35.178 28.178 46.178 28.178 28.178 28.178 28.178 28.178 28.178 28.178 28.178 28.178 34.178 36.178 28.178 28.178 28.178 28.178 39.178 28.178 28.178 28.178 28.178 28.178 28.178 28.178 28.178 28.178 28.178 28.178 28.178 28.178 28.178 30.178 36.178 28.178 28.178 28.178 28.178 32.178 28.178 28.178 28.178 28.178 28.178 28.178 28.178 28.178 28.178 28.178 28.178 28.178 28.178 28.178 28.178 28.178 28.178 28.178 28.178 28.178 28.178 28.178 28.178 28.178 28.178 28.178 28.178 28.178 64.178 28.178 28.178 28.178 28.178 28.178 28.178 28.178 28.178 28.178 28.178 28.178 28.178 28.178 28.178 28.178 28.178 28.178 28.178 28.178 28.178 28.178 28.178 28.178 28.178 33.178 28.178 28.178 28.178 28.178 28.178 113.178 28.178 29.178 28.178 28.178 258.178 30.178 28.178 28.178 28.178 39.178 28.178 28.178 28.178 28.178 28.178 28.178 28.178 28.178 28.178 28.178 28.178 28.178 28.178 28.178 28.178 28.178 28.178 28.178 28.178 28.178 44.178 28.178 28.178 28.178 28.178 28.178 28.178 28.178 28.178 28.178 28.178 28.178 28.178 28.178 28.178 28.178 28.178 28.178 28.178 28.178 30.178 28.178 28.178 28.178 28.178 28.178 28.178 28.178 28.178 28.178 36.178 28.178 28.178 28.178 28.178 28.178 28.178 28.178 28.178 28.178 28.178 28.178 28.178 28.178 28.178 28.178 28.178 28.178 28.178 28.178 28.178 28.178 28.178 28.178 28.178 41.178 28.178 28.178 28.178 28.178 28.178 28.178 28.178 28.178 28.178 28.178 28.178 28.178 28.178 28.178 28.178 28.178 28.178 28.178 28.178 28.178 28.178 28.178 28.178 28.178 28.178 54.178 28.178 28.178 28.178 28.178 28.178 28.178 28.178 28.178 28.178 28.178 28.178 28.178 192.178 37.178 28.178 28.178 28.178 28.178 28.178 498.178 28.178 28.178 28.178 28.178 28.178 28.178 28.178 28.178 40.178 36.178 28.178 28.178 28.178 28.178 28.178 28.178 28.178 28.178 28.178 28.178 28.178 28.178 28.178 28.178 28.178 28.178 28.178 28.178 28.178 28.178 28.178 28.178 28.178 28.178 28.178 28.178 28.178 28.178 28.178 28.178 28.178 28.178 28.178 28.178 28.178 28.178 28.178 28.178 28.178 28.178 134.178 28.178 85.178 28.178 28.178 279.178 28.178 28.178 28.178 28.178 28.178 28.178 28.178 28.178 28.178 28.178 28.178 29.178 28.178 28.178 28.178 28.178 28.178 28.178 28.178 28.178 28.178 28.178 28.178 28.178 28.178 28.178 28.178 30.178 28.178 28.178 28.178 28.178 28.178 28.178 28.178 28.178 28.178 28.178 28.178 28.178 28.178 29.178 49.178 80.178 28.178 28.178 28.178 28.178 28.178 28.178 28.178 28.178 28.178 28.178 28.178 28.178 28.178 28.178 28.178 28.178 28.178 28.178 28.178 28.178 28.178 28.178 28.178 63.178 28.178 31.178 28.178 28.178 28.178 28.178 42.178 50.178 28.178 28.178 28.178 28.178 28.178 37.178 28.178 28.178 28.178 28.178 29.178 28.178 28.178 41.178 
rewards of Offsets elements: 1627 0 0 0 0 0 0 0 0 1 0 0 0 0 0 8 227 0 1639 0 4 170 0 0 8 0 0 0 0 0 0 0 0 0 0 32 0 0 0 0 85 611 0 0 0 0 108 0 0 0 0 27 55 0 0 0 3 5 0 0 0 80 63 0 0 0 37 31 0 0 1086 96 0 0 0 340 65 32 0 0 0 84 32 0 0 0 31 0 0 0 0 63 191 0 0 0 42 0 0 0 0 210 5 0 0 0 224 25 0 815 0 72 0 0 0 0 0 137 66 0 0 0 18 0 0 0 0 3 0 0 2303 0 91 0 0 0 0 65 0 0 0 0 135 0 0 0 0 12 0 0 0 0 18 0 0 1626 1137 382 0 0 0 0 0 0 0 0 0 0 84 5 0 0 0 58 1 0 0 0 11 13 0 0 1 14 27 0 0 0 0 0 0 0 0 0 0 0 0 0 14 0 0 0 0 19 0 0 0 0 0 0 0 0 0 0 0 0 0 0 40 0 0 0 0 0 14 0 0 0 20 0 0 0 0 43 0 0 0 0 90 4 0 0 0 3 1 397 0 0 12 0 0 0 0 76 0 0 0 6 107 597 0 0 14 0 0 0 0 0 23 0 0 350 2 50 0 0 0 7 318 0 0 0 0 0 0 0 0 36 281 0 0 0 56 72 84 0 0 0 4 21 0 0 0 0 72 0 0 0 9 135 0 0 0 11 36 0 0 0 0 0 0 0 0 0 0 0 0 3 0 52 0 0 0 9 108 0 0 2 4 36 0 0 6 7 27 0 0 12 144 12 0 410 4 18 9 0 0 0 24 63 0 0 0 0 0 20 0 0 0 0 2 0 0 0 15 39 0 0 0 181 102 0 0 0 6 45 0 0 871 0 1 0 0 32 0 2 0 0 948 0 0 0 0 0 0 0 0 0 0 0 0 0 0 0 584 0 0 0 0 23 36 0 0 0 0 0 0 0 32 128 0 5 45 0 178 21 0 215 509 0 0 141 0 0 0 0 308 0 5 0 0 4 40 0 0 0 335 110 538 0 0 0 700 0 0 0 4 33 0 0 0 2 0 6 0 0 0 0 0 0 0 270 0 0 0 0 0 0 0 0 0 0 0 0 0 0 0 0 0 199 0 0 0 0 0 0 0 0 0 0 0 0 0 0 85 0 0 0 48 8 0 0 0 0 0 0 0 0 455 0 0 0 76 459 0 0 364 0 0 0 0 0 0 0 0 0 1 1 0 0 0 49 0 0 0 0 0 9 0 0 0 0 0 0 0 0 0 0 0 0 0 0 0 0 0 0 0 0 0 0 0 0 187 233 0 0 0 0 0 486 0 0 0 0 0 0 0 0 0 0 0 0 1 0 0 0 0 0 206 0 0 0 0 2 19 0 0 0 0 0 0 0 0 0 0 429 0 0 0 14 0 0 0 0 0 0 2 0 0 0 0 0 0 0 0 0 0 0 28 0 0 0 0 0 0 0 0 0 0 0 0 0 0 0 47 0 0 0 0 0 0 0 0 0 0 0 0 0 0 0 0 0 0 0 0 0 0 0 0 0 0 0 0 0 0 0 0 34 0 0 0 51 0 27 0 0 30 0 0 0 0 0 0 0 0 0 0 0 0 0 0 0 0 0 0 0 3 4 0 0 0 112 0 0 0 1 0 0 0 0 3 0 0 0 0 0 60 0 0 0 0 4 0 0 0 9 0 0 0 0 0 0 0 0 0 0 0 0 0 0 21 16 0 0 0 0 27 0 0 0 0 4 0 0 0 0 12 0 0 0 0 0 0 0 0 0 0 0 86 0 0 0 0 71 0 0 0 0 63 4 0 0 25 17 0 0 0 0 40 24 20 0 0 6 14 10 5 3 14 0 0 0 0 18 0 0 0 0 0 0 0 0 0 0 0 0 0 29 8 0 0 0 0 0 0 0 0 0 0 0 0 0 0 4 0 0 0 0 14 0 0 0 0 10 0 0 0 0 0 0 0 0 0 0 0 0 0 0 0 0 0 0 2 5 0 0 0 0 8 43 0 0 0 0 0 0 0 39 0 0 0 0 0 0 0 0 0 0 0 4 0 0 0 0 0 0 0 0 0 0 0 0 0 0 0 0 0 0 0 0 0 4 0 0 0 85 0 0 0 0 0 0 0 0 0 0 16 0 0 0 8 0 0 0 0 0 0 0 0 264 0 0 0 0 0 0 0 0 0 0 32 0 0 0 0 544 0 0 0 0 0 0 0 312 0 0 0 0 0 0 0 0 0 0 0 0 0 0 0 0 0 0 0 0 0 0 0 0 0 0 0 0 0 0 0 0 0 0 0 0 15 0 0 0 0 6 0 0 0 0 0 0 0 0 0 0 45 1 0 0 243 0 0 0 0 0 0 0 0 6 0 44 0 0 0 0 0 0 0 0 137 0 0 0 0 0 0 0 0 0 275 1 0 0 0 0 34 0 0 0 0 0 0 0 0 0 0 0 0 0 0 0 0 0 0 0 0 0 0 0 0 27 21 0 0 0 21 3 0 12 0 0 6 0 6 4 12 40 0 0 0 0 0 0 0 0 0 0 0 0 0 0 0 0 0 0 0 0 0 0 0 0 0 0 0 0 0 0 0 0 0 28 0 14 0 0 0 0 0 0 0 0 0 0 0 84 0 0 8 0 8 0 0 4 2 4 0 0 1 0 6 0 0 16 19 14 0 0 3 0 0 0 0 8 0 0 0 0 4 0 0 0 0 320 0 0 0 0 638 0 0 0 0 0 0 0 0 0 0 0 0 152 0 0 84 0 0 0 0 0 0 0 0 0 0 0 0 0 0 0 0 0 469 0 0 0 0 0 45 0 0 0 0 108 0 0 0 0 3 0 170 0 0 0 0 0 0 0 10 3 0 0 0 0 0 0 0 0 0 0 0 0 0 0 0 0 0 0 0 0 0 0 0 14 0 0 0 0 26 0 0 2 0 0 0 0 9 0 0 47 0 0 0 0 0 0 0 0 0 10 0 0 0 0 0 18 0 0 0 0 0 0 0 0 0 0 0 0 0 0 0 0 0 0 284 0 0 0 0 18 0 0 0 0 0 0 0 0 0 0 0 0 0 0 4 66 0 0 0 0 0 0 0 0 0 0 0 0 0 0 36 2 0 0 0 28 0 0 0 0 14 0 0 0 0 8 120 0 0 0 0 0 0 0 0 0 11 0 0 0 1 0 0 0 0 0 345 0 0 0 0 18 0 0 0 0 8 0 0 0 0 9 0 0 0 0 4 0 0 0 0 18 0 0 0 0 13 2 0 0 17 0 0 0 0 1 0 0 0 0 0 0 0 0 0 0 2 0 0 0 0 0 0 0 0 0 0 0 0 0 0 24 2 0 0 0 0 0 0 0 0 0 0 0 0 0 474 0 0 0 0 0 0 0 0 135 11 0 0 0 0 0 0 0 0 10 0 0 0 0 1 0 0 0 0 0 1 0 14 0 0 3 4 9 0 0 0 45 2 0 0 0 0 0 0 0 0 0 0 0 0 0 0 4 0 0 0 0 2 0 0 9 10 0 0 0 0 0 0 4 8 0 0 0 0 0 0 115 0 0 0 0 0 0 0 0 0 0 0 0 0 0 0 0 0 0 0 0 0 0 0 0 0 0 0 0 0 0 0 0 0 0 0 0 0 0 0 0 0 0 0 0 0 1 0 0 0 0 0 0 0 0 0 0 0 0 0 0 0 0 0 21 0 0 0 0 0 0 0 0 0 0 0 0 0 0 0 0 0 0 0 0 0 0 0 0 0 0 0 0 0 0 0 0 0 0 0 0 0 0 0 0 0 0 0 0 0 0 0 0 17 4 0 0 0 0 0 0 0 2 0 0 0 0 0 0 0 0 0 0 0 0 0 0 0 0 0 0 0 0 0 0 0 0 0 0 0 0 0 0 0 0 0 0 0 0 0 0 0 0 0 0 0 0 0 0 0 0 0 0 44 0 0 7 0 18 0 0 0 0 0 0 0 0 0 6 8 0 0 0 0 11 0 0 0 0 0 0 0 0 0 0 0 0 0 0 2 8 0 0 0 0 4 0 0 0 0 0 0 0 0 0 0 0 0 0 0 0 0 0 0 0 0 0 0 0 0 0 0 0 0 36 0 0 0 0 0 0 0 0 0 0 0 0 0 0 0 0 0 0 0 0 0 0 0 0 5 0 0 0 0 0 85 0 1 0 0 230 2 0 0 0 11 0 0 0 0 0 0 0 0 0 0 0 0 0 0 0 0 0 0 0 0 16 0 0 0 0 0 0 0 0 0 0 0 0 0 0 0 0 0 0 0 2 0 0 0 0 0 0 0 0 0 8 0 0 0 0 0 0 0 0 0 0 0 0 0 0 0 0 0 0 0 0 0 0 0 0 13 0 0 0 0 0 0 0 0 0 0 0 0 0 0 0 0 0 0 0 0 0 0 0 0 0 26 0 0 0 0 0 0 0 0 0 0 0 0 164 9 0 0 0 0 0 470 0 0 0 0 0 0 0 0 12 8 0 0 0 0 0 0 0 0 0 0 0 0 0 0 0 0 0 0 0 0 0 0 0 0 0 0 0 0 0 0 0 0 0 0 0 0 0 0 0 0 106 0 57 0 0 251 0 0 0 0 0 0 0 0 0 0 0 1 0 0 0 0 0 0 0 0 0 0 0 0 0 0 0 2 0 0 0 0 0 0 0 0 0 0 0 0 0 1 21 52 0 0 0 0 0 0 0 0 0 0 0 0 0 0 0 0 0 0 0 0 0 0 0 35 0 3 0 0 0 0 14 22 0 0 0 0 0 9 0 0 0 0 1 0 0 13 Printing Sanity3
offset_index value2141
offset list size2141
reward size2141
potential size2141
-----------------------------------------------------------------------------------------------------------------------------------------------------------------------------------------------------

DRAM Statistics
 CHANNEL 0
 RQ ROW_BUFFER_HIT:      19013  ROW_BUFFER_MISS:      57385
 DBUS_CONGESTED:         10
 WQ ROW_BUFFER_HIT:       3627  ROW_BUFFER_MISS:      26712  FULL:          0

 AVG_CONGESTED_CYCLE: 6
 All warmup complete: 2
Channel 0 Bank busy for read cycles: 0
Channel 0 Bank busy for write cycles: 0
Channel 0
Rank 0
0banks busy for read cycles: 388026392
0banks busy for write cycles: 20892
1banks busy for read cycles: 6974489
1banks busy for write cycles: 3222140
2banks busy for read cycles: 760142
2banks busy for write cycles: 593043
3banks busy for read cycles: 28375
3banks busy for write cycles: 61473
4banks busy for read cycles: 29137
4banks busy for write cycles: 60556
5banks busy for read cycles: 29348
5banks busy for write cycles: 16625
6banks busy for read cycles: 33336
6banks busy for write cycles: 11357
7banks busy for read cycles: 33288
7banks busy for write cycles: 14759
8banks busy for read cycles: 36491
8banks busy for write cycles: 8120

CPU 0 Branch Prediction Accuracy: 99.9778% MPKI: 0.038155 Average ROB Occupancy at Mispredict: 24.2625
Branch types
NOT_BRANCH: 165656544 82.8283%
BRANCH_DIRECT_JUMP: 2068715 1.03436%
BRANCH_INDIRECT: 12589489 6.29474%
BRANCH_CONDITIONAL: 10225815 5.11291%
BRANCH_DIRECT_CALL: 3834255 1.91713%
BRANCH_INDIRECT_CALL: 895479 0.44774%
BRANCH_RETURN: 4729714 2.36486%
BRANCH_OTHER: 0 0%

DRAM PAGES: 1048576
Allocated PAGES: 5748
