
*** ChampSim Multicore Out-of-Order Simulator ***

Warmup Instructions: 50000000
Simulation Instructions: 200000000
Number of CPUs: 1
LLC sets: 2048
LLC ways: 16
Off-chip DRAM Size: 4096 MB Channels: 1 Width: 64-bit Data Rate: 6400 MT/s
CPU 0 runs traces/spec2k17/server_023.champsimtrace.xz
.xz
BTB has LRU replacement policy
ITLB has LRU replacement policy
DTLB has LRU replacement policy
STLB has LRU replacement policy
L1I has LRU replacement policy
L1D has LRU replacement policy
Initialize SRRIP state for L2C
Initialize DRRIP state for LLC
Heartbeat CPU 0 instructions: 10000000 cycles: 2812037 heartbeat IPC: 3.55614 cumulative IPC: 3.55614 (Simulation time: 0 hr 0 min 37 sec) 
Heartbeat CPU 0 instructions: 20000003 cycles: 5615972 heartbeat IPC: 3.56642 cumulative IPC: 3.56127 (Simulation time: 0 hr 1 min 15 sec) 
Heartbeat CPU 0 instructions: 30000002 cycles: 8419656 heartbeat IPC: 3.56674 cumulative IPC: 3.56309 (Simulation time: 0 hr 1 min 53 sec) 
Heartbeat CPU 0 instructions: 40000003 cycles: 11225025 heartbeat IPC: 3.56459 cumulative IPC: 3.56347 (Simulation time: 0 hr 2 min 29 sec) 
Heartbeat CPU 0 instructions: 50000003 cycles: 14029322 heartbeat IPC: 3.56596 cumulative IPC: 3.56396 (Simulation time: 0 hr 3 min 6 sec) 

Warmup complete CPU 0 instructions: 50000003 cycles: 14029322 (Simulation time: 0 hr 3 min 6 sec) 

Offsets elements: 
Potential of Offsets elements: 
rewards of Offsets elements: 
Printing Sanity1
offset list size2292
Offsets elements: 
Potential of Offsets elements: 
rewards of Offsets elements: 0 106 0 0 0 0 0 0 0 0 26 1206 0 0 45 0 0 0 0 0 0 0 0 0 0 0 0 0 0 66 12 213 0 0 0 25 56 0 0 0 0 0 0 0 0 0 0 811 619 0 33 0 0 0 283 0 0 0 0 0 0 0 0 0 0 0 0 0 28 0 3 1 0 0 0 0 0 0 0 0 0 0 0 0 0 0 0 4 36 0 0 0 141 0 0 0 0 0 0 0 0 0 0 0 0 0 0 0 1 18 0 0 0 0 0 0 4 0 0 0 0 0 0 0 0 0 0 0 0 0 0 0 0 0 0 0 0 0 0 0 0 0 0 0 1051 0 5 0 0 0 0 0 0 1281 0 0 0 0 0 0 0 0 0 0 0 0 0 0 1135 0 0 1253 0 0 0 0 0 0 0 0 0 0 0 0 0 0 0 0 240 0 511 0 0 0 209 0 0 0 0 0 0 0 0 0 0 0 0 0 0 0 112 0 0 162 0 0 0 0 0 0 0 0 0 0 95 0 42 34 1558 0 0 485 0 0 0 967 0 0 0 78 572 0 0 0 0 0 0 0 0 0 0 0 0 2 0 0 4 0 0 0 0 0 0 246 640 140 178 114 196 0 0 0 2 0 0 0 0 0 0 0 0 0 0 0 0 0 0 0 0 0 0 0 0 0 0 0 0 0 0 0 0 0 0 0 0 0 0 0 0 0 0 0 0 0 0 0 0 0 0 0 0 0 0 0 0 0 56 224 196 15 0 14 6 41 0 2 0 0 0 0 0 0 17 0 0 189 0 0 0 0 0 0 0 0 12 0 0 0 0 0 0 0 0 0 0 0 0 0 0 0 0 0 0 0 0 0 0 0 0 0 0 0 0 0 1 0 0 0 0 0 0 0 0 0 0 0 0 53 672 0 594 163 0 330 345 0 0 0 0 0 0 0 0 0 0 12 0 0 0 0 0 0 0 108 100 0 0 0 0 0 0 0 0 0 0 0 0 0 0 0 1363 0 0 0 0 0 0 186 0 0 0 0 0 0 0 0 0 0 0 0 0 0 0 0 0 0 0 0 4 0 0 0 0 0 0 0 0 0 0 0 0 0 0 0 121 0 95 0 0 0 0 0 0 0 0 0 0 0 174 1 0 0 0 0 48 1050 0 0 0 9 0 0 0 0 0 0 0 0 0 0 235 0 0 0 0 0 0 0 0 0 101 0 0 377 14 1 0 0 0 0 0 0 0 0 0 0 0 0 0 0 0 0 0 0 0 0 0 0 0 0 0 0 0 0 0 0 0 0 0 9 2 0 0 0 0 120 990 0 46 0 0 0 0 0 0 0 38 0 0 0 0 0 0 0 0 0 0 0 0 0 0 0 0 0 0 0 23 0 0 0 0 36 0 0 0 0 1 0 0 0 0 0 81 0 0 0 388 167 0 0 0 0 0 0 0 0 0 1 40 3 0 0 5 0 51 0 0 0 1 81 0 0 0 0 0 0 0 0 8 0 0 0 0 0 0 0 0 0 0 0 0 0 0 0 0 0 0 0 0 0 0 64 0 0 0 0 0 0 0 0 0 0 0 0 0 0 0 0 0 0 0 0 40 0 0 0 0 0 0 0 0 920 232 0 0 1 0 0 0 0 176 239 0 0 0 0 0 0 0 0 0 0 0 0 0 0 0 0 0 0 0 0 0 0 0 0 0 0 0 0 0 0 0 0 0 0 0 0 0 0 48 0 0 0 0 0 0 0 0 0 0 14 24 0 0 0 0 0 0 0 608 116 9 0 0 0 0 0 0 0 0 4 0 0 10 60 0 0 0 0 0 0 0 59 0 19 0 0 0 0 0 0 0 0 0 0 0 0 0 0 0 0 0 0 0 0 0 0 0 9 0 0 0 12 1 0 0 0 0 0 0 0 0 9 0 0 0 283 9 20 0 0 36 33 138 7 0 0 0 0 0 0 98 0 0 0 0 464 0 0 0 0 0 0 0 0 0 0 0 0 12 0 0 0 0 0 0 0 0 9 0 0 0 3 0 0 0 0 0 0 0 0 0 0 6 0 0 0 0 0 0 0 0 1 1 0 0 0 0 0 0 0 5 0 0 0 41 0 0 1 2 0 0 0 0 0 0 0 2 0 0 31 0 0 0 0 0 0 0 0 0 0 0 0 0 0 0 0 0 0 0 0 0 0 0 0 6 0 0 0 0 205 0 0 0 0 0 0 0 0 0 0 0 0 0 0 0 0 0 0 41 0 0 0 0 0 0 0 0 0 0 0 0 129 0 0 0 0 24 0 0 86 2 0 0 0 0 0 0 0 0 0 0 0 0 0 0 0 9 0 0 0 0 0 0 0 0 76 0 0 0 2 0 0 0 0 45 0 0 3 58 0 0 0 0 0 0 0 0 35 0 0 0 0 0 0 0 0 0 0 0 0 0 0 0 0 0 0 0 0 0 0 0 0 0 0 0 0 0 0 0 0 0 0 31 47 0 0 0 0 0 0 0 0 0 0 0 0 0 0 0 0 0 0 0 0 0 0 0 0 0 0 38 0 0 0 0 0 0 0 0 0 51 0 0 0 0 0 0 0 0 0 0 23 0 2 0 0 0 0 0 0 0 0 0 0 0 0 0 1 0 0 0 1 0 0 0 0 0 0 0 0 0 0 0 0 0 0 0 0 0 0 0 0 0 59 130 0 0 0 0 0 0 0 0 87 133 0 0 0 62 32 162 0 0 1 2 0 0 0 0 0 0 132 0 0 0 0 0 0 4 0 0 0 0 0 0 0 0 0 0 0 0 0 0 0 0 0 0 0 0 0 0 0 0 0 0 0 0 0 0 0 0 0 0 0 0 0 0 0 0 264 0 0 0 0 0 0 0 0 0 0 0 0 0 0 0 0 0 0 0 179 0 86 1 0 8 0 0 0 0 0 0 0 0 0 0 0 0 0 121 0 0 0 0 0 0 0 0 0 0 0 0 0 0 0 0 0 0 0 0 0 0 0 0 0 0 0 0 0 0 0 0 252 120 0 118 24 0 0 0 224 0 0 0 0 0 0 0 0 0 0 0 0 6 0 6 0 23 0 0 0 0 0 0 0 0 0 0 0 0 0 0 0 22 1040 231 0 0 0 0 0 0 0 0 0 0 0 0 0 0 0 0 0 0 0 0 0 0 0 0 0 0 0 0 0 0 0 0 0 0 0 0 3 0 0 0 0 0 0 6 0 0 0 0 0 0 0 0 0 0 0 0 0 0 0 0 0 0 0 0 0 0 0 0 0 49 0 0 0 0 0 0 0 0 0 0 0 0 0 0 0 0 0 0 0 0 0 0 0 0 0 0 0 0 0 0 0 0 0 5 0 0 0 0 0 0 0 0 0 0 0 0 0 0 0 0 0 0 0 0 0 0 0 0 0 0 0 0 0 0 0 0 0 0 0 0 0 0 0 0 0 0 0 0 0 0 0 0 0 0 0 0 0 0 0 0 0 0 0 0 0 0 0 0 0 0 0 0 254 0 62 0 0 0 0 0 0 0 0 0 0 0 0 0 0 0 0 0 1 0 0 0 124 0 0 0 0 0 0 0 0 0 0 0 0 0 0 0 0 0 0 0 0 0 0 0 0 0 0 0 0 36 72 0 0 0 0 0 0 0 0 0 0 0 0 0 0 0 0 0 44 0 0 0 0 0 0 0 0 0 0 0 0 0 0 0 0 0 0 0 0 0 0 0 0 0 0 0 0 0 0 0 0 0 0 0 0 0 24 56 154 0 0 0 0 0 0 0 0 0 0 0 17 0 0 0 0 0 0 0 0 0 0 0 0 0 0 0 0 0 0 0 0 0 0 0 0 0 0 0 0 0 0 0 0 0 0 0 0 0 0 0 0 0 0 0 0 0 0 0 0 0 0 0 0 0 0 0 0 0 0 0 0 0 0 0 0 0 0 0 0 0 0 0 0 0 0 0 0 0 0 0 0 0 0 0 0 0 0 0 0 0 0 47 0 0 0 0 0 0 0 0 0 0 0 0 0 4933 0 0 0 0 0 0 0 0 0 0 0 0 0 74 0 0 0 0 0 0 0 0 0 0 0 0 0 0 0 0 0 0 0 0 0 0 0 0 0 0 0 0 0 0 0 0 0 0 0 0 0 0 2 0 0 0 0 0 0 0 0 0 0 0 0 0 0 0 0 0 0 0 0 0 0 212 0 0 0 0 0 0 0 0 0 0 0 0 0 0 0 0 0 0 0 0 0 0 0 0 0 0 0 0 0 0 0 0 0 0 0 0 0 0 6 21 1 0 0 0 0 0 0 0 0 0 0 0 0 0 0 0 0 0 20 0 0 0 0 0 0 0 0 0 0 0 0 0 0 0 0 0 0 0 0 0 34 30 0 0 0 0 0 2 0 0 0 0 0 0 0 0 0 0 0 0 0 0 0 0 0 2 0 0 0 0 0 0 12 0 0 0 0 0 0 0 0 0 0 0 0 0 0 0 0 28 0 0 0 0 0 0 0 0 0 0 0 0 0 0 0 0 0 0 0 0 0 0 0 0 54 0 0 0 0 0 0 0 0 0 0 58 0 0 0 0 0 0 0 0 0 50 0 0 0 0 0 0 0 0 0 0 0 0 0 90 186 0 0 0 0 0 0 145 0 0 0 0 0 0 0 0 0 0 0 0 0 0 0 0 0 0 0 0 0 0 0 0 0 0 0 0 0 0 0 0 0 0 0 0 0 0 0 0 0 0 0 0 0 0 0 0 0 0 0 0 0 0 0 0 0 0 0 0 0 4 0 0 0 0 56 0 0 0 0 0 0 0 0 0 0 0 0 0 0 0 2 0 0 0 0 0 0 0 0 0 0 0 0 0 0 0 0 0 0 0 0 0 0 0 0 0 0 0 0 0 0 0 0 0 0 0 0 0 0 0 0 0 0 0 0 0 0 0 0 0 0 0 60 0 0 0 0 0 0 0 0 0 0 0 0 0 0 0 0 0 0 0 0 0 0 0 0 246 0 0 0 0 0 0 0 0 0 0 0 0 0 0 0 0 0 6 0 0 0 0 0 0 0 0 0 0 0 0 0 0 0 0 0 0 0 0 0 0 0 0 0 0 0 1 0 0 0 0 0 75 0 0 0 0 0 0 0 418 0 0 0 0 0 0 0 0 0 0 0 0 0 0 0 0 0 0 0 
Printing Sanity2
Heartbeat CPU 0 instructions: 60000002 cycles: 44263377 heartbeat IPC: 0.330753 cumulative IPC: 0.330753 (Simulation time: 0 hr 4 min 13 sec) 
Heartbeat CPU 0 instructions: 70000002 cycles: 74210471 heartbeat IPC: 0.333922 cumulative IPC: 0.33233 (Simulation time: 0 hr 5 min 17 sec) 
Heartbeat CPU 0 instructions: 80000000 cycles: 104100947 heartbeat IPC: 0.334555 cumulative IPC: 0.333068 (Simulation time: 0 hr 6 min 23 sec) 
Heartbeat CPU 0 instructions: 90000000 cycles: 130398669 heartbeat IPC: 0.380261 cumulative IPC: 0.343733 (Simulation time: 0 hr 7 min 23 sec) 
Heartbeat CPU 0 instructions: 100000001 cycles: 160088908 heartbeat IPC: 0.336811 cumulative IPC: 0.342326 (Simulation time: 0 hr 8 min 27 sec) 
*** Reached end of trace for Core: 0 Repeating trace: traces/spec2k17/server_023.champsimtrace.xz
Heartbeat CPU 0 instructions: 110000000 cycles: 190633540 heartbeat IPC: 0.32739 cumulative IPC: 0.339743 (Simulation time: 0 hr 9 min 34 sec) 
Heartbeat CPU 0 instructions: 120000001 cycles: 220006624 heartbeat IPC: 0.340448 cumulative IPC: 0.339843 (Simulation time: 0 hr 10 min 39 sec) 
Heartbeat CPU 0 instructions: 130000000 cycles: 250266769 heartbeat IPC: 0.330468 cumulative IPC: 0.338642 (Simulation time: 0 hr 11 min 44 sec) 
Heartbeat CPU 0 instructions: 140000001 cycles: 279723162 heartbeat IPC: 0.339485 cumulative IPC: 0.338736 (Simulation time: 0 hr 12 min 51 sec) 
Heartbeat CPU 0 instructions: 150000001 cycles: 309617265 heartbeat IPC: 0.334514 cumulative IPC: 0.338309 (Simulation time: 0 hr 13 min 53 sec) 
Heartbeat CPU 0 instructions: 160000001 cycles: 339858984 heartbeat IPC: 0.330669 cumulative IPC: 0.3376 (Simulation time: 0 hr 14 min 54 sec) 
Heartbeat CPU 0 instructions: 170000000 cycles: 369219291 heartbeat IPC: 0.340596 cumulative IPC: 0.337847 (Simulation time: 0 hr 15 min 59 sec) 
Heartbeat CPU 0 instructions: 180000001 cycles: 399612313 heartbeat IPC: 0.329023 cumulative IPC: 0.337152 (Simulation time: 0 hr 17 min 5 sec) 
Heartbeat CPU 0 instructions: 190000003 cycles: 425642338 heartbeat IPC: 0.384172 cumulative IPC: 0.340125 (Simulation time: 0 hr 18 min 6 sec) 
Heartbeat CPU 0 instructions: 200000003 cycles: 455405989 heartbeat IPC: 0.33598 cumulative IPC: 0.339846 (Simulation time: 0 hr 19 min 8 sec) 
*** Reached end of trace for Core: 0 Repeating trace: traces/spec2k17/server_023.champsimtrace.xz
Heartbeat CPU 0 instructions: 210000000 cycles: 485420629 heartbeat IPC: 0.333171 cumulative IPC: 0.339421 (Simulation time: 0 hr 20 min 8 sec) 
Heartbeat CPU 0 instructions: 220000000 cycles: 515191641 heartbeat IPC: 0.335897 cumulative IPC: 0.339211 (Simulation time: 0 hr 21 min 14 sec) 
Heartbeat CPU 0 instructions: 230000001 cycles: 545142010 heartbeat IPC: 0.333886 cumulative IPC: 0.338911 (Simulation time: 0 hr 22 min 20 sec) 
Heartbeat CPU 0 instructions: 240000001 cycles: 574552622 heartbeat IPC: 0.340013 cumulative IPC: 0.338969 (Simulation time: 0 hr 23 min 25 sec) 
Heartbeat CPU 0 instructions: 250000001 cycles: 604555652 heartbeat IPC: 0.3333 cumulative IPC: 0.338681 (Simulation time: 0 hr 24 min 31 sec) 
Finished CPU 0 instructions: 200000002 cycles: 590526331 cumulative IPC: 0.338681 (Simulation time: 0 hr 24 min 31 sec) 

ChampSim completed all CPUs

Region of Interest Statistics

CPU 0 cumulative IPC: 0.338681 instructions: 200000002 cycles: 590526331
ITLB TOTAL     ACCESS:   34710633  HIT:   32902235  MISS:    1808398  HIT %:    94.7901  MISS %:    5.20993   MPKI: 9.04199
ITLB LOAD TRANSLATION ACCESS:   34710633  HIT:   32902235  MISS:    1808398  HIT %:    94.7901  MISS %:    5.20993   MPKI: 9.04199
ITLB PREFETCH  REQUESTED:          0  ISSUED:          0  USEFUL:          0  USELESS:          0
ITLB USEFUL LOAD PREFETCHES:          0 PREFETCH ISSUED TO LOWER LEVEL:          0  ACCURACY: -nan
ITLB TIMELY PREFETCHES:          0 LATE PREFETCHES: 0 DROPPED PREFETCHES: 0
ITLB PREFETCHES SAME FILL-ORIGIN LEVEL: 0 DIFFERENT FILL-ORIGIN LEVEL: 0
ITLB AVERAGE MISS LATENCY: 9.07365 cycles
ITLB RQ	ACCESS:   40423365	FORWARD:          0	MERGED:    5278549	TO_CACHE:   35144816

DTLB TOTAL     ACCESS:   44787206  HIT:   43010638  MISS:    1776568  HIT %:    96.0333  MISS %:    3.96669   MPKI: 8.88284
DTLB LOAD TRANSLATION ACCESS:   44787206  HIT:   43010638  MISS:    1776568  HIT %:    96.0333  MISS %:    3.96669   MPKI: 8.88284
DTLB PREFETCH  REQUESTED:          0  ISSUED:          0  USEFUL:          0  USELESS:          0
DTLB USEFUL LOAD PREFETCHES:          0 PREFETCH ISSUED TO LOWER LEVEL:          0  ACCURACY: -nan
DTLB TIMELY PREFETCHES:          0 LATE PREFETCHES: 0 DROPPED PREFETCHES: 0
DTLB PREFETCHES SAME FILL-ORIGIN LEVEL: 0 DIFFERENT FILL-ORIGIN LEVEL: 0
DTLB AVERAGE MISS LATENCY: 9.35096 cycles
DTLB RQ	ACCESS:   59134587	FORWARD:          0	MERGED:   14280383	TO_CACHE:   44854204

STLB TOTAL     ACCESS:    3584966  HIT:    3574082  MISS:      10884  HIT %:    99.6964  MISS %:   0.303601   MPKI: 0.05442
STLB LOAD TRANSLATION ACCESS:    3584966  HIT:    3574082  MISS:      10884  HIT %:    99.6964  MISS %:   0.303601   MPKI: 0.05442
STLB PREFETCH  REQUESTED:          0  ISSUED:          0  USEFUL:          0  USELESS:          0
STLB USEFUL LOAD PREFETCHES:          0 PREFETCH ISSUED TO LOWER LEVEL:          0  ACCURACY: -nan
STLB TIMELY PREFETCHES:          0 LATE PREFETCHES: 0 DROPPED PREFETCHES: 438424
STLB PREFETCHES SAME FILL-ORIGIN LEVEL: 0 DIFFERENT FILL-ORIGIN LEVEL: 0
STLB AVERAGE MISS LATENCY: 67.3821 cycles
STLB RQ	ACCESS:    4236669	FORWARD:          0	MERGED:     142116	TO_CACHE:    4094553

STLB Hit, L1D data hit: 0
STLB Hit, L2C data hit: 0
STLB Hit, LLC data hit: 0
STLB Hit, LLC data miss: 0
STLB STLB hints to L2: 0
L1D TOTAL     ACCESS:   57344793  HIT:   53546423  MISS:    3798370  HIT %:    93.3763  MISS %:    6.62374   MPKI: 18.9918
L1D LOAD      ACCESS:   33234627  HIT:   30504560  MISS:    2730067  HIT %:    91.7855  MISS %:    8.21453   MPKI: 13.6503
L1D RFO       ACCESS:   24110166  HIT:   23041863  MISS:    1068303  HIT %:    95.5691  MISS %:    4.43092   MPKI: 5.34151
L1D PREFETCH  REQUESTED:    1335594  ISSUED:    1335594  USEFUL:          0  USELESS:          0
L1D USEFUL LOAD PREFETCHES:          0 PREFETCH ISSUED TO LOWER LEVEL:          0  ACCURACY: -nan
L1D TIMELY PREFETCHES:          0 LATE PREFETCHES: 0 DROPPED PREFETCHES: 651703
L1D PREFETCHES SAME FILL-ORIGIN LEVEL: 0 DIFFERENT FILL-ORIGIN LEVEL: 0
L1D AVERAGE MISS LATENCY: 25.2835 cycles
L1D RQ	ACCESS:   46483595	FORWARD:          0	MERGED:   12841629	TO_CACHE:   33349728
L1D WQ	ACCESS:   25954686	FORWARD:     292238	MERGED:     169827	TO_CACHE:   25784859
L1D PQ	ACCESS:     683891	FORWARD:          0	MERGED:      32188	TO_CACHE:     651703

L1D UNIQUE REGIONS ACCESSED: 0
L1D REGIONS CONFLICTS: 0
L1D Cross Page Prefetch Requests: 683891
L1D Same Page Prefetch Requests: 0
L1D ROI Sum of L1D PQ occupancy: 19136121
L1D PREFETCHES PUSHED FROM L2C: 0
L1I TOTAL     ACCESS:   39033113  HIT:   29564767  MISS:    9468346  HIT %:    75.7428  MISS %:    24.2572   MPKI: 47.3417
L1I LOAD      ACCESS:   39033113  HIT:   29564767  MISS:    9468346  HIT %:    75.7428  MISS %:    24.2572   MPKI: 47.3417
L1I PREFETCH  REQUESTED:          0  ISSUED:          0  USEFUL:          0  USELESS:          0
L1I USEFUL LOAD PREFETCHES:          0 PREFETCH ISSUED TO LOWER LEVEL:          0  ACCURACY: -nan
L1I TIMELY PREFETCHES:          0 LATE PREFETCHES: 0 DROPPED PREFETCHES: 0
L1I PREFETCHES SAME FILL-ORIGIN LEVEL: 0 DIFFERENT FILL-ORIGIN LEVEL: 0
L1I AVERAGE MISS LATENCY: 16.5637 cycles
L1I RQ	ACCESS:   58054187	FORWARD:          0	MERGED:   17630822	TO_CACHE:   40423365

BTB TOTAL     ACCESS:   30427145  HIT:   19331295  MISS:   11095850  HIT %:    63.5331  MISS %:    36.4669   MPKI: 55.4792
BTB BRANCH_DIRECT_JUMP	ACCESS:    2146750  HIT:    1371370  MISS:     775380
BTB BRANCH_INDIRECT	ACCESS:   11246234  HIT:    7076259  MISS:    4169975
BTB BRANCH_CONDITIONAL	ACCESS:    9077307  HIT:    7961255  MISS:    1116052
BTB BRANCH_DIRECT_CALL	ACCESS:    3361643  HIT:    1552306  MISS:    1809337
BTB BRANCH_INDIRECT_CALL	ACCESS:     616815  HIT:     250442  MISS:     366373
BTB BRANCH_RETURN	ACCESS:    3978396  HIT:    1119663  MISS:    2858733
BTB BRANCH_OTHER ACCESS:          0  HIT:          0  MISS:          0

L2C TOTAL     ACCESS:   15504732  HIT:   14105777  MISS:    1398955  HIT %:    90.9772  MISS %:    9.02276   MPKI: 6.99477
L2C LOAD      ACCESS:   12198388  HIT:   11058425  MISS:    1139963  HIT %:    90.6548  MISS %:    9.34519   MPKI: 5.69981
L2C DATA LOAD MPKI: 1.93893
L2C INSTRUCTION LOAD MPKI: 3.76088
L2C RFO       ACCESS:    1068294  HIT:     864286  MISS:     204008  HIT %:    80.9034  MISS %:    19.0966   MPKI: 1.02004
L2C WRITEBACK ACCESS:    1787643  HIT:    1740926  MISS:      46717  HIT %:    97.3867  MISS %:    2.61333   MPKI: 0.233585
L2C LOAD TRANSLATION ACCESS:      11983  HIT:       3718  MISS:       8265  HIT %:    31.0273  MISS %:    68.9727   MPKI: 0.041325
L2C TRANSLATION FROM L1D PREFETCHER ACCESS:     438424  HIT:     438422  MISS:          2  HIT %:    99.9995  MISS %: 0.000456179   MPKI: 1e-05
L2C PREFETCH  REQUESTED:          0  ISSUED:          0  USEFUL:          2  USELESS:          0
L2C USEFUL LOAD PREFETCHES:          2 PREFETCH ISSUED TO LOWER LEVEL:          0  ACCURACY: inf
L2C TIMELY PREFETCHES:          2 LATE PREFETCHES: 0 DROPPED PREFETCHES: 0
L2C PREFETCHES SAME FILL-ORIGIN LEVEL: 0 DIFFERENT FILL-ORIGIN LEVEL: 0
L2C AVERAGE MISS LATENCY: 44.9875 cycles
L2C RQ	ACCESS:   13717123	FORWARD:          0	MERGED:          0	TO_CACHE:   13717089
L2C WQ	ACCESS:    1787643	FORWARD:         34	MERGED:          0	TO_CACHE:    1787643

L2C Instructions Evicting Data 307603
L2C Translations Evicting Data 5074
L2C Data Evicting Data 305529
L2C Instructions Evicting Instructions 441547
L2C Translations Evicting Instructions 3074
L2C Data Evicting Instructions 281315
L2C Instructions Evicting Translations 3027
L2C Translations Evicting Translations 119
L2C Data Evicting Translations 4950
L2C Dense regions hint from L2: 0
PSCL5 TOTAL     ACCESS:     449308  HIT:     449308  MISS:          0  HIT %:        100  MISS %:          0   MPKI: 0
PSCL5 LOAD TRANSLATION ACCESS:      10884  HIT:      10884  MISS:          0  HIT %:        100  MISS %:          0   MPKI: 0
PSCL5 TRANSLATION FROM L1D PREFETCHER ACCESS:     438424  HIT:     438424  MISS:          0  HIT %:        100  MISS %:          0   MPKI: 0
PSCL5 PREFETCH  REQUESTED:          0  ISSUED:          0  USEFUL:          0  USELESS:          0
PSCL5 USEFUL LOAD PREFETCHES:          0 PREFETCH ISSUED TO LOWER LEVEL:          0  ACCURACY: -nan
PSCL5 TIMELY PREFETCHES:          0 LATE PREFETCHES: 0 DROPPED PREFETCHES: 0
PSCL5 PREFETCHES SAME FILL-ORIGIN LEVEL: 0 DIFFERENT FILL-ORIGIN LEVEL: 0

PSCL4 TOTAL     ACCESS:      10018  HIT:       9957  MISS:         61  HIT %:    99.3911  MISS %:   0.608904   MPKI: 0.000305
PSCL4 LOAD TRANSLATION ACCESS:      10018  HIT:       9957  MISS:         61  HIT %:    99.3911  MISS %:   0.608904   MPKI: 0.000305
PSCL4 PREFETCH  REQUESTED:          0  ISSUED:          0  USEFUL:          0  USELESS:          0
PSCL4 USEFUL LOAD PREFETCHES:          0 PREFETCH ISSUED TO LOWER LEVEL:          0  ACCURACY: -nan
PSCL4 TIMELY PREFETCHES:          0 LATE PREFETCHES: 0 DROPPED PREFETCHES: 0
PSCL4 PREFETCHES SAME FILL-ORIGIN LEVEL: 0 DIFFERENT FILL-ORIGIN LEVEL: 0

PSCL3 TOTAL     ACCESS:      10742  HIT:      10681  MISS:         61  HIT %:    99.4321  MISS %:   0.567864   MPKI: 0.000305
PSCL3 LOAD TRANSLATION ACCESS:      10742  HIT:      10681  MISS:         61  HIT %:    99.4321  MISS %:   0.567864   MPKI: 0.000305
PSCL3 PREFETCH  REQUESTED:          0  ISSUED:          0  USEFUL:          0  USELESS:          0
PSCL3 USEFUL LOAD PREFETCHES:          0 PREFETCH ISSUED TO LOWER LEVEL:          0  ACCURACY: -nan
PSCL3 TIMELY PREFETCHES:          0 LATE PREFETCHES: 0 DROPPED PREFETCHES: 0
PSCL3 PREFETCHES SAME FILL-ORIGIN LEVEL: 0 DIFFERENT FILL-ORIGIN LEVEL: 0

PSCL2 TOTAL     ACCESS:      10884  HIT:       9878  MISS:       1006  HIT %:    90.7571  MISS %:    9.24293   MPKI: 0.00503
PSCL2 LOAD TRANSLATION ACCESS:      10884  HIT:       9878  MISS:       1006  HIT %:    90.7571  MISS %:    9.24293   MPKI: 0.00503
PSCL2 PREFETCH  REQUESTED:          0  ISSUED:          0  USEFUL:          0  USELESS:          0
PSCL2 USEFUL LOAD PREFETCHES:          0 PREFETCH ISSUED TO LOWER LEVEL:          0  ACCURACY: -nan
PSCL2 TIMELY PREFETCHES:          0 LATE PREFETCHES: 0 DROPPED PREFETCHES: 0
PSCL2 PREFETCHES SAME FILL-ORIGIN LEVEL: 0 DIFFERENT FILL-ORIGIN LEVEL: 0

LLC TOTAL     ACCESS:    1630386  HIT:    1497908  MISS:     132478  HIT %:    91.8744  MISS %:    8.12556   MPKI: 0.66239
LLC LOAD      ACCESS:    1139961  HIT:    1085712  MISS:      54249  HIT %:    95.2412  MISS %:    4.75885   MPKI: 0.271245
LLC RFO       ACCESS:     204008  HIT:     128046  MISS:      75962  HIT %:    62.7652  MISS %:    37.2348   MPKI: 0.37981
LLC WRITEBACK ACCESS:     278150  HIT:     276848  MISS:       1302  HIT %:    99.5319  MISS %:   0.468093   MPKI: 0.00651
LLC LOAD TRANSLATION ACCESS:       8265  HIT:       7301  MISS:        964  HIT %:    88.3364  MISS %:    11.6636   MPKI: 0.00482
LLC TRANSLATION FROM L1D PREFETCHER ACCESS:          2  HIT:          1  MISS:          1  HIT %:         50  MISS %:         50   MPKI: 5e-06
LLC PREFETCH  REQUESTED:          0  ISSUED:          0  USEFUL:          1  USELESS:          0
LLC USEFUL LOAD PREFETCHES:          1 PREFETCH ISSUED TO LOWER LEVEL:          0  ACCURACY: inf
LLC TIMELY PREFETCHES:          1 LATE PREFETCHES: 0 DROPPED PREFETCHES: 0
LLC PREFETCHES SAME FILL-ORIGIN LEVEL: 0 DIFFERENT FILL-ORIGIN LEVEL: 0
LLC AVERAGE MISS LATENCY: 168.473 cycles
LLC RQ	ACCESS:    1352238	FORWARD:          0	MERGED:          0	TO_CACHE:    1352236
LLC WQ	ACCESS:     278150	FORWARD:          2	MERGED:          0	TO_CACHE:     278150

LLC Dense regions hint to LLC: 0

RAW hits: 1419886
Loads Generated: 47903481
Loads sent to L1D: 46483595
Stores Generated: 25954684
Stores sent to L1D: 25954686
Major fault: 0 Minor fault: 2897
Allocated PAGES: 2897
ucb ended
-----------------------------------------------------------------------------------------------------------------------------------------------------------------------------------------------------
Offsets elements: 24957 12 -24963 1133856 -1334403 224022 1465995766150 -1465995764669 1108894 -1134658 802 3 825977 165563 946 1465992225796 -1465992225796 141367 1465992084428 -1465992226741 -1192084 157387 68116 -70275 1036856 1465994798088 -1465995790433 -266285 292044 -1086 1097 -6 -1091 105 -24774 25755 -25768 993288 -152068 -1107509 267095 -200547 225503 1465995764669 808 992482 -967518 -1 1 967518 -225511 1465993418804 2571368 -2571368 6 -1465993193300 -24962 1465993218262 -1465992225780 -166506 -801019 801020 -826784 803 24969 1048564 1465992144734 -1465992392286 -825981 992487 -801025 1101 -26856 -198652 1465993418823 2571349 -1465993218262 992485 -1465992392303 1465992392304 -1465993218283 992486 -166507 307875 1465992084429 307881 -1177781 869899 -871320 885631 1465992377993 -1465993193323 -225503 199739 1465995789631 -1465994949338 -860376 1465993238364 -1465993238363 1153938 -1179169 885606 1465992377988 -1465992377988 -1465992348489 264064 -293563 -885606 1465993263594 -1465993203065 854577 264063 -1118640 1465993203065 -1465993263594 1179169 -962 1465993204027 -1117982 -1620 -59567 61187 -1465993203909 1119484 59685 -59685 -1119164 -60005 60005 1197 -1197 -1465993202392 1119164 1465992084425 -1465993219316 -44278 -1465992084425 -1134891 -44279 44279 1465993219315 -1465993219313 1134888 44281 4 1465993219308 -1465993219308 1134883 44284 1465993219310 -1134885 -44291 44289 2 16911 -16913 1465993219301 -1465993219300 1134875 44295 1465993219299 -1134868 1465993219293 -1134869 1465993219295 -1465993219293 -44301 -1465993219291 -3 1134869 -1134865 -2 858749 -903051 903051 1465992360543 -1465993219292 858750 276117 903052 1465992360541 -1465992360541 276116 -276115 -903054 903054 1465992360540 -1465993418823 1465995990172 -2571352 5 -1465993418827 -2571349 -1465992084423 -8 -141370 141370 -276117 265872 -1098646 1098647 1465992094675 -1465992084430 -1334399 1193029 1465994797143 -1465994655773 -307877 31760 -1324154 1465993418827 2571345 -2571345 -1465993418826 1465993418829 2571343 -2571343 1465992084432 -1465992084435 -1334394 -1465994655778 1465992084433 -1465993193328 -1054 1050 -225498 224444 1465995765728 -1465995990172 -2571353 -1465992084422 -4 -1179192 1179196 1465992084426 -5 -2571346 -1465993216250 1465993216256 -1465993418832 1465993418833 2571339 -2571340 -1465992083269 -1133051 -213232 213232 1465993216320 -1465992094682 -1121578 1465993216259 -1465993216259 -1465993216301 1133429 1465992082873 -1465993418836 1465993418835 2571337 -2571338 -1465993418833 -1465995787596 -4540 -198036 1465993418836 2571336 -2571339 1465993418838 2571334 -2571334 -1465993220802 1465993220804 -1465993257882 -171492 171492 1465993257881 -1465993220804 -198035 1465993418839 2571333 -1465992083222 -1133085 -1133387 1465993216268 -1465992083225 1465992083222 -1465993216307 -1133386 1465993216263 -1465993216304 1465993216305 -1465993418839 1465993418843 2571329 -2571331 -1465993418844 1465993418844 2571328 -2571329 -1465992094694 1465992094695 -1465993418611 1323916 -21921 -1302251 -1465994687923 1465992116594 -1465993400636 1465993400637 -1465993401362 180466 1137672 344 -344 -1335717 157776 1465993260819 147 -1465993260967 1465993260821 -1465993260821 1138465 -1138465 -1465992082880 -1177941 39476 -1335964 20623 1465995969549 -2571136 -1465993418925 70392 -48922 8533 -8545 48935 -70504 -2571330 -1465993260818 -157776 157775 -70392 21470 -21581 -1465993388729 1465995960058 -1465995968603 1265063 -1317636 184649 1465993216264 -1465993261956 -156888 1465995990169 -1465995989925 155836 1465993262758 149 -95 -1465993418650 1465993418650 -1465993262810 1114656 -1114656 1114660 1465992148150 -1465992148150 1465992148149 -1465993418655 1465993418656 1465992148095 -1465993262754 -156083 1270743 -1114663 -155835 -248 -1465993418841 -1465994654605 -1335567 202581 1465995787591 -1317893 184906 -45692 1116786 -1117607 5425 -172457 172474 1465993257320 -1465992083263 -1317646 1284466 -1099807 -184651 -17929 1333708 1465994656464 1465993418830 2571342 -2571341 13 -1465993418843 -2571333 7 -1465992083228 -1135695 1102325 1465992116595 -1465993400637 -725 1465993220899 -1465993418847 -1318691 1285502 -1302378 -1465994654552 -1137586 -209278 209279 1465993220805 197 -1465993419036 111 1465995990061 -1465995968607 84746 -139425 -15825 -2571336 1465993430082 -1465993263589 42784 1465993430083 209281 1465993220802 -1465993263593 -1465993418838 1465993419036 2571136 -1465995990061 -48938 -21565 15825 1465993403011 -1465993348330 -48936 1465995968603 -1465994718937 -1073198 -198037 -197799 197799 1073198 1465992147601 -2571337 -1465993418593 1465993418599 -1465993382837 1465995954172 1465993418840 2571332 -1465992147609 -1271235 -2571335 -1465992147602 -1113216 -2932031543273 2932032656936 1465992147155 -1465993418597 1270995 447 1465992147156 -1465993418586 1270984 1465992147609 1465992147605 -1465992116460 1465992116465 -1465993388850 1465995960184 48936 1465993348335 9 94 -93 -1465992116465 1465992116466 1465993418891 2571281 -1465992083227 71250 -1406872 -1465993388732 1465995960062 -1465995919662 -48939 48938 1265112 -1335621 8672 1465993388589 -1465993397273 -70505 -1465994654551 -1465993388589 1465995959919 1265115 1891 -199927 1465993418841 -1465993382752 1465995954084 127531 1093908 -1302674 1302675 -1291945 1268491 1465994721681 -1465994721680 65903 -1108892 -24957 23907 -1465995765728 -224444 -1465992084441 -1108896 108 -24777 1108885 10 -1134663 841225 -815458 1108898 -141373 -967526 -25764 825976 -801020 24964 -1048563 1465993193327 -1465992084434 1465992084435 -1465992084440 -1108890 1465993193331 -1465992150348 -1268492 -70503 1465993403013 1465993397274 -1465995919667 178358 -199677 1271860 -3618 -1068582 -199909 2571331 -1465993388812 1465995960144 -1465995792137 -176465 127528 1465993220808 -1465993382758 1465995954088 -1465995968602 1265111 1465993216265 -1465993418842 1465993418842 -1465993382748 1465995954079 -1465995787638 -132027 -48937 132029 -202535 -1465993382841 132030 -202288 1465993418596 -1465993216308 1465993216309 -1465993388728 14512 1465993382749 -1465993348339 -1465993348336 -70396 70395 1465995919666 1314049 1135646 -1340251 4718 1335536 -1335533 1465993418806 -1465995919664 48937 129417 1102327 33715 -1335963 1231743 -30129 -1272118 -1465993388852 1465995960182 1231742 -1302247 8468 1465993388793 -1465993348334 -70508 1465995968602 -2571328 -1465993382755 1465993348366 -27 25 -1465993418871 1465993401995 -1465992116493 33189 -1132987 -138906 1284397 1465992116492 -1465995989934 1302141 -1465992116462 26 -1465993263676 -165680 11204 -718 -1465995989886 1465995931508 58386 -58033 53072 -2566370 2571330 30 -1465992116491 -1472524 170145 -1465993418594 155842 1465993262901 -149 -1465993262731 -2932031541295 2932032677749 -1136454 1136477 1465992126255 -1465993418601 1465993418604 -1465992126258 1465992126258 -1465992083273 -1132986 1090014 1465992126242 -1465992126248 -1409416 1409416 1465992126250 -1465993262748 -155841 155840 -156088 27 -1465992083198 -1346959 11285 -1465994654498 -1346960 1347004 1465992083124 -1465992083162 -1318970 1318966 -1346961 1346961 -1335427 159335 1465993259408 -1465992083311 -1176097 -159334 159333 1465993259258 -1465993402134 1318970 1465992083168 -1465992083163 1465992083163 -1465992083145 1465992083146 -1465992083161 1465992083161 -1465992083160 1465992083160 -1465992083159 1465992083159 -1465992083157 1465992083157 -1465992083156 1465992083156 -1465992083155 1465992083155 -1465992083153 1465992083153 -1465992083152 1465992083152 -1465992083150 1465992083150 -1465992083149 1465992083149 -1465992083148 1465992083145 -1465993418840 -1465992083197 1335674 1465994654498 -1465994654496 44 -1347004 1465993430127 -1465993402133 -1335430 1335427 170868 1465993259409 -1465993259408 1176096 159334 1465993259257 -1465993259257 1465993259260 1465992083164 1465992083148 -1465992083146 -1335695 1465993418872 2571300 -2571300 27994 -1335674 -11285 1465996001457 1465993430126 -1465992083164 -1318969 1318968 -1335429 1465993418743 -1465992083316 -1346963 -159333 1465993259255 -1465992083119 1465992083121 -1465993402132 -1318806 -16591 17865 1465993400694 1465992083166 -1465992083165 1465992083165 -1465992083144 -19 1465992083162 -1465992083158 1465992083158 -1465992083154 1465992083154 -1465992083151 1465992083151 -1465992083147 -44 1465992083167 -1465992083167 32 -31 -1465992083166 -1318967 1465992083316 -1465993430277 1176093 -1176093 1465993418590 -21 -2571332 29 -1465992083304 107 -1346958 1346958 -1318966 -27993 1346959 -213233 213233 -202516 202516 1465995787656 -1465995787656 1065975 -1042990 -225502 224021 427 1465995765724 -1465995828953 -167193 231472 -1465993193334 -1097 124 967 -1088 1098 -1099 -1465993193324 1096 1465993193329 -1465993193327 -225508 1465993418837 2571335 -1465993400629 -51 179793 -179794 -18155 -7 23 -26 -1465993418607 1465993418701 -49 49 56 -65 -1465992009026 1465992009034 -1465992116505 1465995931853 -345 58378 -4961 -2566338 2571299 -2571299 -1465992116494 8 33181 -184598 1284396 -1145490 1145490 326234 -155842 1465993262902 -1465992083423 -46485 1465993262782 -1465993418624 155841 1465993262784 -1465992116492 33188 -1285501 1285507 -1285504 1285504 1465992116491 22 -1465993418895 1465993418935 2571237 64 -1465992083371 -1693 -166549 1346920 1465992083368 -1465993430072 1346704 -1465996001455 1347001 1347005 -22 1465992083214 -1465992083366 -1318359 185372 1131127 -1315740 138921 -167782 167785 883967 1465992378075 -1465993429771 10838 -21567 1465993418933 -1465993348417 -48943 -5747 1465995974347 -1465994656626 -1333546 16870 1465995973302 -1465995989920 -252 1465993348423 -1465993348423 1465993418929 -1465993403104 1391037 1465994583310 -2571240 -1465993418932 -21566 1465993403104 -1465993348419 1465995968601 -1465994656418 1465992085175 -1465993418930 -1465994583300 -73282 -1333590 -1465994656450 1465992085208 -1465992085341 1465992085342 -1465992085342 1465992085341 1465992085343 -1465992012061 -1465993388818 1465993348421 1465993418930 -1465993388676 2571239 -2571241 -1465992085228 1465992085228 -1465992083368 -1860 -161 -1344833 1344833 -1344877 1344877 -23 1465992085364 73272 -1406862 1465993398413 -1465995919669 1465993418931 -1465993388821 1263081 1465993418932 -1465993388678 1465993348428 -1465993418681 1465995978601 -1465994645283 1465992085363 -1465993418933 -1465993388823 -8538 48943 1465995919657 -2571239 -1465992083367 1465993216413 -1465993216412 1465993216412 -1465993216413 2571240 -2571243 -1465993216411 1465993216417 -1465992150442 -1268491 5128 1465992145312 -1465992150441 -1042989 -1050 1465993194482 2571246 -1465995764670 254573 1465992939947 -1465993193433 -1465995764664 1465993193424 -1465993193423 -1465993193422 1465993193423 -1465992145311 -5130 5130 -1273618 1273617 -1273373 1273373 1465992145311 59 -58 -1273372 1273371 -1273619 286 1465995989886 -58378 345 4962 2571242 -1465993237989 -19983 19983 1465993237989 -1465992145310 -1273620 -1465993382839 -1465995919665 1265061 155124 1180443 1465994654605 -1465995833857 1465993262617 -1465992116542 1465992116540 -1465992083365 -1179252 1146074 33178 -1179253 1179254 -1179254 1146076 33179 -1179255 1146077 1465992116544 -1179256 1146068 -1302386 -1465993382846 1231877 1465992116552 -1179257 -156309 1465992083366 -8478 48941 -70512 -2571238 -1465993418935 -1465993388820 1465993348433 -1465993400469 1465993400469 -1465992126999 1465992127002 -1465992160397 -1258539 18439 141602 -163528 3483 160045 1465995830127 -1465995993655 163530 915 -171508 1281159 1465992148324 -1465992148324 -1110566 1465993258890 -1465995830127 -163527 1465993422417 1270608 -1270611 1465993403106 -1465993348425 -1465994721639 1465992150400 -1465995990169 1465992148322 1108489 1465992150399 1465993418934 2571238 -1465993418938 160960 1465995829212 -1465996000720 10548 -2571234 160961 1465995829211 -1465992150400 -1268533 -10549 1465995942343 -1465995931853 -4962 4961 -2571242 2077 -1465992148322 -2078 -1108485 1142564 -34076 1465993418940 2571232 -1465994580322 -1409815 17939 1250560 -1268534 160046 1465995830126 -2571232 -1465992009090 -1409850 -2571247 -1465992116324 -1313124 1465993429449 -1465992009082 -107241 -1284135 182039 -200231 1465995935524 -2516815 -62 288223780712094108 -10603623 -2200619017299 2200619017299 112093 -51234 -384123 443226 174488 -174489 174487 -12869419 12694931 -12694931 12869422 -2200619277196 2200606407774 12847218 -2200619148268 2200619148270 -272274 272274 22195 -22195 10603348 -2200629472974 2200619164095 -294469 294469 -22193 19 20 22172 -22197 22178 -22191 -22203 -17 -92532 -2200619055782 2200619055784 -2200619162658 2200619162658 -174852 289576 -22180 22177 -22190 14 -22189 22191 22197 -22199 -2200619148267 2200619148286 -25 -35883 58083 -22179 22179 -2200619172016 2200619172009 -2200619148266 -23978 2200614636860 14868626 -14868626 -10328342 -4540284 4540220 17359 -17294 17293 -2200619151985 2200614594396 14868639 -14868639 -10337239 -4531400 4531656 25934 -3744317859 3744317860 -4557591 4557593 -26167 8875 17294 -17293 -4900 22193 2200619153169 4895 -4878 4877 -4897 17 -2200619172840 2200619172840 22175 -22170 4876 -4898 -2200619172029 2200619172030 -2200619195015 2200619195018 -22178 22182 -17301 17295 -17295 -4895 22196 -288225246693794039 288225246693794021 -9 -17296 -4875 4875 17304 -2200619176911 2200619172014 -2200619171988 2200619171979 -2200619172015 2200619172015 22186 -22188 17291 -22171 4878 -4881 4880 -4877 -18 4896 -2200619172012 2200619194200 -2200619175058 2200619192349 -2200619195009 2200619177719 -4876 22166 -17289 -8873 8872 17288 -17288 17289 -17287 -4880 4879 -4883 4900 17285 -17286 -4899 4898 -4894 4901 -4906 4904 -4885 22170 -17285 4897 -4879 -14 2200619172029 22167 -22167 -2200619172026 -2200619255056 2200619255040 11 -17284 -4887 4888 -2200619172841 2200619172834 -2200619171989 2200619171991 -2200619172838 2200619195009 -22174 4884 -40799 10369841 -10329042 -4884 4886 -4888 2200619255051 4893 -4904 -92531 2200619055782 -174845 231494 58067 17284 -17283 -92539 2200619260091 92541 -267379 231487 40791 -8900 24 -4905 4899 26181 -58043 40760 -97432 -38476 135907 -4903 26180 -153191 135905 26183 -2200619177059 162 2200619176896 8899 17277 -2200619194344 2200619194341 -274658 -2200618919662 2200619194323 -17280 -31845 -2200619219254 2200619277275 -17276 17280 -17279 -2200619176897 17274 -26174 26175 -2200619194321 2200619177044 26176 -2200619194346 2200619194346 -2200619194342 2200618975545 -2200618976202 2200619179935 15068 -15068 -15067 15064 -15064 -2200619179255 -2200619194324 2200619177045 2212 -2213 2211 -279388 279391 -11113 -2200619251097 2200619251097 11113 2213 -8899 11111 -30930 45990 -15061 -15062 15062 -58017 42956 -42957 58019 -58018 42953 294449 10308899 -10308899 -2200619164075 2200619164076 -15060 -2200619179936 2200619179936 -28717 -15066 15066 -153187 106462 46726 -17282 -58075 58075 -268278 10605270 -10463202 103872 10357408 -10335070 -2200619118957 2200619096624 -241072 241063 48512 -48511 -2200619146276 2200619177506 -31230 -72465894503 -2128153251156 2200619145660 10359322 -10605270 294455 10308893 2200619164082 -46725 46725 -97431 97431 -40798 -56634 10426475 10329043 -10329044 -40760 -95142 135903 45998 -153185 135901 58025 -153183 153183 92527 -174844 -56643 97432 -2200619260090 106876 -174854 -2200618987806 2200619260092 -8876 8874 97434 -277178 179746 -2200619055704 2200618880850 263386 -673054 450662 231289 -231291 231292 17279 8876 -277177 268302 -263410 272284 -97430 -272280 10598450 -10598450 289557 -195522 70936 -164976 94042 10504414 1913 -10328085 -272291 263415 -272287 -2200618995055 2200619267342 17276 -17275 17278 -289567 94047 10506327 -10328086 -2200619177144 2200618904855 272291 -272286 2200619267341 -4901 22174 -263383 136653 126730 26174 -289552 272277 10326171 -2200629503697 2200629505724 -10310926 -17274 10600490 -2200629505339 2200629505339 -10310921 -10308898 -2200619164076 2200629475001 -10310924 10311760 -10311761 -195519 195519 -289569 10600374 -10605261 294454 -294456 2200618869626 2200629473275 -11565845 962196 -2200629503894 2200618900546 -2200618869626 2200629472974 -10308892 10309195 -10603651 -2200618900646 100 614 2200629505302 -10310917 10310922 -2200629505302 -10310925 10310920 -10328195 -272290 10600482 -10310922 -17270 -2200619177147 2200619177145 272292 272282 241 2200619194175 -289562 272290 -2200619176904 2200619176905 -272277 272278 -40800 -10329041 8900 -31900 31900 -8875 10329045 -10337945 -40759 -95150 135909 17265 -26166 26167 -153179 153176 -17269 10369792 -10311784 -153175 153174 -17268 -40791 40789 88533 8898 97430 -272278 263378 -31862 11314 46714 -58057 58057 -17265 -26165 10461280 -10357408 22338 -22337 15 -241058 241058 -2200619096620 2200619096621 48499 -2200619194770 -31234 -72465894499 72465894498 10359328 -2200629504982 2200618899712 294439 -46712 -106452 135899 -15052 -138112 107182 -107180 135897 15051 -58008 58009 -153162 153162 -17264 -2200619119072 2200619145235 -2200619194209 -82959 2200619259905 31901 10337940 -8898 8897 -88534 -174846 -2200619168015 -2200619145243 3570913 2200615613609 -39277 39274 -65442 65449 -56551 -272276 231548 40729 -2211 56543 -39282 -17262 17262 39277 10269632 -10269630 -39279 -17261 56557 -56558 -24 65440 -2200619233468 2200619233470 -56560 65442 -56544 114692 39298 -56559 56542 -85262 45979 -45980 40124 -25249 31114 -31114 -2200619163655 2200619163645 -2200619163658 2200629503697 -2766 -2200629500931 2200629504003 -1420 35 -10338946 -15 10338961 -2200629502605 2448 2200619192317 -2200619192316 10307838 -10307838 -2200619194761 2200619163649 10338949 -10338960 -2200619278038 2200619278052 -13 7333 10331622 -10307841 -31115 7336 -10338955 7334 -7332 31116 -31119 -7333 7335 -7308 -30 10338895 37 -10331627 -2200619170993 2200619194778 10307616 -10331401 31118 -2200619192725 2200619168941 -7334 31119 -23785 12997 10325927 -10325926 10325959 -33 -10331623 10331591 -10325925 -5666 5661 -1202059 1220179 -18120 -10325930 10325925 -10307806 10307807 -2200629500533 2200619174606 18119 -10307804 -31124 10338960 -10338959 -2200619162862 -115161 2200629616988 -2200629501822 2200629501825 1077 -2200629502902 29647 -144879 114457 885 -115342 2200619309214 -2200619194757 -114457 2200619194757 10307837 -2200629501821 2200629501823 -10307837 -31122 -2200619278037 2200629616999 10307836 -35 -10338901 31101 -45979 45980 39295 -153976 82368 2200619234278 -2200619234081 2200629501191 -10267110 -39296 10306406 -10306406 39296 -39295 10267110 2506 -10308912 -2200619194785 2200619194784 10310905 -2200629505689 2200629504263 -3072 3072 -10270182 10270182 -2200629504460 2200629504460 10270189 -39297 10309478 -10309478 10309476 -10309476 39279 -58062 58064 10311777 -10311776 10310921 -2200619194996 2200619194999 10310917 10310800 -10310802 -294451 10605358 -10310905 10308895 2200619164079 -294453 294456 -294457 294458 -17292 -4871 -2200619172835 2200619172833 22176 -35894 -72465884985 72465943072 -17291 -22176 -2200619172030 2200619172024 -2200619172833 -2200619172031 2200619172023 -2200619172823 2200619172827 -12847227 12869412 -22194 272275 2200619148273 22192 2200619164094 -294468 -12869421 12694930 174489 -294475 294482 -288223780701784905 -63 -1465993218410 1465993218411 17938 1465993400958 1465992009081 -1465993418931 -1465992150401 -1279082 1279083 -1268531 1465992148321 -1465995960189 1465993388951 -1465993397365 1465993348427 -2571237 8678 -1273 8579 56661 20388 -89859 -24643 21450 1465993397373 -1465993394180 -24644 3174 4231 20387 -77049 -12810 12810 20389 12807 -12807 21467 3176 8578 1465993381368 -1465993324707 1465993324706 -1465993394177 12808 150 1465993381370 -1465993418822 1465993397372 -1465993418934 -2571235 -1291938 -1465993388906 -1465994731629 21566 89539 -141602 -21926 163528 -160045 -3483 1465995993655 -1465995830125 913 -915 -170593 -1465995993654 21569 1465993348425 -1465993403107 1270611 -2077 1465993258886 1465993418938 -1465993429486 1465996000720 -1465994721638 1465996000721 58033 -2566279 -1108486 1302607 -34073 1465994721638 -1465996000689 1313126 -1302609 -1465995971698 -78 288223780712094124 233589 -617713 443225 -174488 -12694933 -174491 -2200619102705 2200619148271 -272275 10308879 2200619164096 -22198 -20 21 22200 -294472 22181 -2200619194203 2200619172026 -22181 -16 -233239 233238 -272273 294467 10308881 -10308880 -2200619164094 2200619141901 10603322 -10603348 -2200618900349 2200629505689 -2200629505670 2200629505682 -10310889 10309451 -10309450 10310843 -10310843 10310878 -10605341 10605343 -2200629505675 2200619192348 10310879 2200618900341 10605329 -10605340 -2200619014740 2200619014732 55004 10550337 -10605338 55002 -55002 -55001 52 294404 -294455 294483 -294454 -2200618897864 -446 2200629501937 -10309195 -294436 250561 43875 55001 10550334 -10550337 55000 -55000 54999 55003 -54976 10605275 -2200629505655 2200618900351 239456 10310657 -10605113 -239456 45083 10560222 -10560222 31 -10560220 -10560223 9920 -9920 9918 -9923 -970889 11531113 -10560225 10560256 -10560257 10560223 249374 -249372 249373 -249375 10560225 -10560226 10560221 -10310848 -10560221 10310848 -10310845 -294448 10605306 -10605306 10605305 -2200629620034 2200629620035 -294461 10605307 -10560224 10560224 -10310880 10310845 249375 -249374 -294404 294406 -294407 -52 -294405 54950 -54950 54952 -10605287 -54946 54948 -54949 54951 -54952 10310882 -10310881 2200629505670 10605341 -10605278 10605277 10605328 -10605328 65 10603541 -10603554 294410 -294374 294416 -2200619152007 2200618857612 36 294630 -294667 10605288 -10310587 10310624 -10310622 294669 -294672 272192 22480 -22480 -272192 294672 10308624 2200619164350 -22481 -211012 233492 -233492 233490 -22465 -35864 -72465884996 72465920880 -11 -102317 102307 -102308 102306 -102307 102316 -92509 -66457 102308 -191663 191663 -102325 102325 -191662 191667 -191667 22461 -22457 -102324 102328 -2200619139124 2200619139129 -102330 102323 -72465884995 72465920862 -102304 -2200619045933 2200619148240 22478 -22464 -102321 -89316 89315 102322 -89340 -2200619172805 2200619172805 -102328 124786 -22461 -102326 102326 -102331 102329 4863 -2200619175010 2200619192604 -2200619192605 2200619170145 2200619172817 -12 -2200619172793 2200619177670 -2200619177670 2200619172803 22460 -22454 22456 -10 -2200619171963 2200619171943 -2128153251929 2200619172811 -4862 4862 17597 -17597 -4854 4855 -4859 4857 -4860 4860 17598 -17598 17595 -22456 22458 
Potential of Offsets elements: 28.2522 134.252 28.2522 28.2522 28.2522 28.2522 28.2522 28.2522 28.2522 28.2522 54.2522 1234.25 28.2522 28.2522 73.2522 28.2522 28.2522 28.2522 28.2522 28.2522 28.2522 28.2522 28.2522 28.2522 28.2522 28.2522 28.2522 28.2522 28.2522 94.2522 40.2522 241.252 28.2522 28.2522 28.2522 53.2522 84.2522 28.2522 28.2522 28.2522 28.2522 28.2522 28.2522 28.2522 28.2522 28.2522 28.2522 839.252 647.252 28.2522 61.2522 28.2522 28.2522 28.2522 311.252 28.2522 28.2522 28.2522 28.2522 28.2522 28.2522 28.2522 28.2522 28.2522 28.2522 28.2522 28.2522 28.2522 56.2522 28.2522 31.2522 29.2522 28.2522 28.2522 28.2522 28.2522 28.2522 28.2522 28.2522 28.2522 28.2522 28.2522 28.2522 28.2522 28.2522 28.2522 28.2522 32.2522 64.2522 28.2522 28.2522 28.2522 169.252 28.2522 28.2522 28.2522 28.2522 28.2522 28.2522 28.2522 28.2522 28.2522 28.2522 28.2522 28.2522 28.2522 28.2522 28.2522 29.2522 46.2522 28.2522 28.2522 28.2522 28.2522 28.2522 28.2522 32.2522 28.2522 28.2522 28.2522 28.2522 28.2522 28.2522 28.2522 28.2522 28.2522 28.2522 28.2522 28.2522 28.2522 28.2522 28.2522 28.2522 28.2522 28.2522 28.2522 28.2522 28.2522 28.2522 28.2522 28.2522 28.2522 28.2522 28.2522 1079.25 28.2522 33.2522 28.2522 28.2522 28.2522 28.2522 28.2522 28.2522 1309.25 28.2522 28.2522 28.2522 28.2522 28.2522 28.2522 28.2522 28.2522 28.2522 28.2522 28.2522 28.2522 28.2522 28.2522 1163.25 28.2522 28.2522 1281.25 28.2522 28.2522 28.2522 28.2522 28.2522 28.2522 28.2522 28.2522 28.2522 28.2522 28.2522 28.2522 28.2522 28.2522 28.2522 28.2522 268.252 28.2522 539.252 28.2522 28.2522 28.2522 237.252 28.2522 28.2522 28.2522 28.2522 28.2522 28.2522 28.2522 28.2522 28.2522 28.2522 28.2522 28.2522 28.2522 28.2522 28.2522 140.252 28.2522 28.2522 190.252 28.2522 28.2522 28.2522 28.2522 28.2522 28.2522 28.2522 28.2522 28.2522 28.2522 123.252 28.2522 70.2522 62.2522 1558.11 28.2522 28.2522 513.252 28.2522 28.2522 28.2522 995.252 28.2522 28.2522 28.2522 106.252 600.252 28.2522 28.2522 28.2522 28.2522 28.2522 28.2522 28.2522 28.2522 28.2522 28.2522 28.2522 28.2522 30.2522 28.2522 28.2522 32.2522 28.2522 28.2522 28.2522 28.2522 28.2522 28.2522 274.252 668.252 168.252 206.252 142.252 224.252 28.2522 28.2522 28.2522 30.2522 28.2522 28.2522 28.2522 28.2522 28.2522 28.2522 28.2522 28.2522 28.2522 28.2522 28.2522 28.2522 28.2522 28.2522 28.2522 28.2522 28.2522 28.2522 28.2522 28.2522 28.2522 28.2522 28.2522 28.2522 28.2522 28.2522 28.2522 28.2522 28.2522 28.2522 28.2522 28.2522 28.2522 28.2522 28.2522 28.2522 28.2522 28.2522 28.2522 28.2522 28.2522 28.2522 28.2522 28.2522 28.2522 28.2522 28.2522 28.2522 28.2522 28.2522 28.2522 28.2522 28.2522 84.2522 252.252 224.252 43.2522 28.2522 42.2522 34.2522 69.2522 28.2522 30.2522 28.2522 28.2522 28.2522 28.2522 28.2522 28.2522 45.2522 28.2522 28.2522 217.252 28.2522 28.2522 28.2522 28.2522 28.2522 28.2522 28.2522 28.2522 40.2522 28.2522 28.2522 28.2522 28.2522 28.2522 28.2522 28.2522 28.2522 28.2522 28.2522 28.2522 28.2522 28.2522 28.2522 28.2522 28.2522 28.2522 28.2522 28.2522 28.2522 28.2522 28.2522 28.2522 28.2522 28.2522 28.2522 28.2522 28.2522 28.2522 29.2522 28.2522 28.2522 28.2522 28.2522 28.2522 28.2522 28.2522 28.2522 28.2522 28.2522 28.2522 28.2522 81.2522 700.252 28.2522 622.252 191.252 28.2522 358.252 373.252 28.2522 28.2522 28.2522 28.2522 28.2522 28.2522 28.2522 28.2522 28.2522 28.2522 40.2522 28.2522 28.2522 28.2522 28.2522 28.2522 28.2522 28.2522 136.252 128.252 28.2522 28.2522 28.2522 28.2522 28.2522 28.2522 28.2522 28.2522 28.2522 28.2522 28.2522 28.2522 28.2522 28.2522 28.2522 1391.25 28.2522 28.2522 28.2522 28.2522 28.2522 28.2522 214.252 28.2522 28.2522 28.2522 28.2522 28.2522 28.2522 28.2522 28.2522 28.2522 28.2522 28.2522 28.2522 28.2522 28.2522 28.2522 28.2522 28.2522 28.2522 28.2522 28.2522 32.2522 28.2522 28.2522 28.2522 28.2522 28.2522 28.2522 28.2522 28.2522 28.2522 28.2522 28.2522 28.2522 28.2522 28.2522 28.2522 149.252 28.2522 123.252 28.2522 28.2522 28.2522 28.2522 28.2522 28.2522 28.2522 28.2522 28.2522 28.2522 28.2522 202.252 29.2522 28.2522 28.2522 28.2522 28.2522 76.2522 1078.25 28.2522 28.2522 28.2522 37.2522 28.2522 28.2522 28.2522 28.2522 28.2522 28.2522 28.2522 28.2522 28.2522 28.2522 263.252 28.2522 28.2522 28.2522 28.2522 28.2522 28.2522 28.2522 28.2522 28.2522 129.252 28.2522 28.2522 405.252 42.2522 29.2522 28.2522 28.2522 28.2522 28.2522 28.2522 28.2522 28.2522 28.2522 28.2522 28.2522 28.2522 28.2522 28.2522 28.2522 28.2522 28.2522 28.2522 28.2522 28.2522 28.2522 28.2522 28.2522 28.2522 28.2522 28.2522 28.2522 28.2522 28.2522 28.2522 28.2522 28.2522 28.2522 28.2522 37.2522 30.2522 28.2522 28.2522 28.2522 28.2522 148.252 1018.25 28.2522 74.2522 28.2522 28.2522 28.2522 28.2522 28.2522 28.2522 28.2522 66.2522 28.2522 28.2522 28.2522 28.2522 28.2522 28.2522 28.2522 28.2522 28.2522 28.2522 28.2522 28.2522 28.2522 28.2522 28.2522 28.2522 28.2522 28.2522 28.2522 51.2522 28.2522 28.2522 28.2522 28.2522 64.2522 28.2522 28.2522 28.2522 28.2522 29.2522 28.2522 28.2522 28.2522 28.2522 28.2522 109.252 28.2522 28.2522 28.2522 416.252 195.252 28.2522 28.2522 28.2522 28.2522 28.2522 28.2522 28.2522 28.2522 28.2522 29.2522 68.2522 31.2522 28.2522 28.2522 33.2522 28.2522 79.2522 28.2522 28.2522 28.2522 29.2522 109.252 28.2522 28.2522 28.2522 28.2522 28.2522 28.2522 28.2522 28.2522 36.2522 28.2522 28.2522 28.2522 28.2522 28.2522 28.2522 28.2522 28.2522 28.2522 28.2522 28.2522 28.2522 28.2522 28.2522 28.2522 28.2522 28.2522 28.2522 28.2522 28.2522 28.2522 28.2522 92.2522 28.2522 28.2522 28.2522 28.2522 28.2522 28.2522 28.2522 28.2522 28.2522 28.2522 28.2522 28.2522 28.2522 28.2522 28.2522 28.2522 28.2522 28.2522 28.2522 28.2522 68.2522 28.2522 28.2522 28.2522 28.2522 28.2522 28.2522 28.2522 28.2522 948.252 260.252 28.2522 28.2522 29.2522 28.2522 28.2522 28.2522 28.2522 204.252 267.252 28.2522 28.2522 28.2522 28.2522 28.2522 28.2522 28.2522 28.2522 28.2522 28.2522 28.2522 28.2522 28.2522 28.2522 28.2522 28.2522 28.2522 28.2522 28.2522 28.2522 28.2522 28.2522 28.2522 28.2522 28.2522 28.2522 28.2522 28.2522 28.2522 28.2522 28.2522 28.2522 28.2522 28.2522 28.2522 28.2522 28.2522 28.2522 76.2522 28.2522 28.2522 28.2522 28.2522 28.2522 28.2522 28.2522 28.2522 28.2522 28.2522 42.2522 52.2522 28.2522 28.2522 28.2522 28.2522 28.2522 28.2522 28.2522 636.252 144.252 37.2522 28.2522 28.2522 28.2522 28.2522 28.2522 28.2522 28.2522 28.2522 32.2522 28.2522 28.2522 38.2522 88.2522 28.2522 28.2522 28.2522 28.2522 28.2522 28.2522 28.2522 87.2522 28.2522 47.2522 28.2522 28.2522 28.2522 28.2522 28.2522 28.2522 28.2522 28.2522 28.2522 28.2522 28.2522 28.2522 28.2522 28.2522 28.2522 28.2522 28.2522 28.2522 28.2522 28.2522 28.2522 28.2522 28.2522 37.2522 28.2522 28.2522 28.2522 40.2522 29.2522 28.2522 28.2522 28.2522 28.2522 28.2522 28.2522 28.2522 28.2522 37.2522 28.2522 28.2522 28.2522 311.252 37.2522 48.2522 28.2522 28.2522 64.2522 61.2522 166.252 35.2522 28.2522 28.2522 28.2522 28.2522 28.2522 28.2522 126.252 28.2522 28.2522 28.2522 28.2522 492.252 28.2522 28.2522 28.2522 28.2522 28.2522 28.2522 28.2522 28.2522 28.2522 28.2522 28.2522 28.2522 40.2522 28.2522 28.2522 28.2522 28.2522 28.2522 28.2522 28.2522 28.2522 37.2522 28.2522 28.2522 28.2522 31.2522 28.2522 28.2522 28.2522 28.2522 28.2522 28.2522 28.2522 28.2522 28.2522 28.2522 34.2522 28.2522 28.2522 28.2522 28.2522 28.2522 28.2522 28.2522 28.2522 29.2522 29.2522 28.2522 28.2522 28.2522 28.2522 28.2522 28.2522 28.2522 33.2522 28.2522 28.2522 28.2522 69.2522 28.2522 28.2522 29.2522 30.2522 28.2522 28.2522 28.2522 28.2522 28.2522 28.2522 28.2522 30.2522 28.2522 28.2522 59.2522 28.2522 28.2522 28.2522 28.2522 28.2522 28.2522 28.2522 28.2522 28.2522 28.2522 28.2522 28.2522 28.2522 28.2522 28.2522 28.2522 28.2522 28.2522 28.2522 28.2522 28.2522 28.2522 28.2522 28.2522 34.2522 28.2522 28.2522 28.2522 28.2522 233.252 28.2522 28.2522 28.2522 28.2522 28.2522 28.2522 28.2522 28.2522 28.2522 28.2522 28.2522 28.2522 28.2522 28.2522 28.2522 28.2522 28.2522 28.2522 69.2522 28.2522 28.2522 28.2522 28.2522 28.2522 28.2522 28.2522 28.2522 28.2522 28.2522 28.2522 28.2522 157.252 28.2522 28.2522 28.2522 28.2522 52.2522 28.2522 28.2522 114.252 30.2522 28.2522 28.2522 28.2522 28.2522 28.2522 28.2522 28.2522 28.2522 28.2522 28.2522 28.2522 28.2522 28.2522 28.2522 28.2522 37.2522 28.2522 28.2522 28.2522 28.2522 28.2522 28.2522 28.2522 28.2522 104.252 28.2522 28.2522 28.2522 30.2522 28.2522 28.2522 28.2522 28.2522 73.2522 28.2522 28.2522 31.2522 86.2522 28.2522 28.2522 28.2522 28.2522 28.2522 28.2522 28.2522 28.2522 63.2522 28.2522 28.2522 28.2522 28.2522 28.2522 28.2522 28.2522 28.2522 28.2522 28.2522 28.2522 28.2522 28.2522 28.2522 28.2522 28.2522 28.2522 28.2522 28.2522 28.2522 28.2522 28.2522 28.2522 28.2522 28.2522 28.2522 28.2522 28.2522 28.2522 28.2522 28.2522 28.2522 28.2522 28.2522 59.2522 75.2522 28.2522 28.2522 28.2522 28.2522 28.2522 28.2522 28.2522 28.2522 28.2522 28.2522 28.2522 28.2522 28.2522 28.2522 28.2522 28.2522 28.2522 28.2522 28.2522 28.2522 28.2522 28.2522 28.2522 28.2522 28.2522 28.2522 66.2522 28.2522 28.2522 28.2522 28.2522 28.2522 28.2522 28.2522 28.2522 28.2522 79.2522 28.2522 28.2522 28.2522 28.2522 28.2522 28.2522 28.2522 28.2522 28.2522 28.2522 51.2522 28.2522 30.2522 28.2522 28.2522 28.2522 28.2522 28.2522 28.2522 28.2522 28.2522 28.2522 28.2522 28.2522 28.2522 28.2522 29.2522 28.2522 28.2522 28.2522 29.2522 28.2522 28.2522 28.2522 28.2522 28.2522 28.2522 28.2522 28.2522 28.2522 28.2522 28.2522 28.2522 28.2522 28.2522 28.2522 28.2522 28.2522 28.2522 28.2522 28.2522 28.2522 87.2522 158.252 28.2522 28.2522 28.2522 28.2522 28.2522 28.2522 28.2522 28.2522 115.252 161.252 28.2522 28.2522 28.2522 90.2522 60.2522 190.252 28.2522 28.2522 29.2522 30.2522 28.2522 28.2522 28.2522 28.2522 28.2522 28.2522 160.252 28.2522 28.2522 28.2522 28.2522 28.2522 28.2522 32.2522 28.2522 28.2522 28.2522 28.2522 28.2522 28.2522 28.2522 28.2522 28.2522 28.2522 28.2522 28.2522 28.2522 28.2522 28.2522 28.2522 28.2522 28.2522 28.2522 28.2522 28.2522 28.2522 28.2522 28.2522 28.2522 28.2522 28.2522 28.2522 28.2522 28.2522 28.2522 28.2522 28.2522 28.2522 28.2522 28.2522 28.2522 28.2522 28.2522 28.2522 292.252 28.2522 28.2522 28.2522 28.2522 28.2522 28.2522 28.2522 28.2522 28.2522 28.2522 28.2522 28.2522 28.2522 28.2522 28.2522 28.2522 28.2522 28.2522 28.2522 207.252 28.2522 114.252 29.2522 28.2522 36.2522 28.2522 28.2522 28.2522 28.2522 28.2522 28.2522 28.2522 28.2522 28.2522 28.2522 28.2522 28.2522 28.2522 149.252 28.2522 28.2522 28.2522 28.2522 28.2522 28.2522 28.2522 28.2522 28.2522 28.2522 28.2522 28.2522 28.2522 28.2522 28.2522 28.2522 28.2522 28.2522 28.2522 28.2522 28.2522 28.2522 28.2522 28.2522 28.2522 28.2522 28.2522 28.2522 28.2522 28.2522 28.2522 28.2522 280.252 148.252 28.2522 146.252 52.2522 28.2522 28.2522 28.2522 252.252 28.2522 28.2522 28.2522 28.2522 28.2522 28.2522 28.2522 28.2522 28.2522 28.2522 28.2522 28.2522 34.2522 28.2522 34.2522 28.2522 51.2522 28.2522 28.2522 28.2522 28.2522 28.2522 28.2522 28.2522 28.2522 28.2522 28.2522 28.2522 28.2522 28.2522 28.2522 28.2522 50.2522 1068.25 259.252 28.2522 28.2522 28.2522 28.2522 28.2522 28.2522 28.2522 28.2522 28.2522 28.2522 28.2522 28.2522 28.2522 28.2522 28.2522 28.2522 28.2522 28.2522 28.2522 28.2522 28.2522 28.2522 28.2522 28.2522 28.2522 28.2522 28.2522 28.2522 28.2522 28.2522 28.2522 28.2522 28.2522 28.2522 28.2522 28.2522 31.2522 28.2522 28.2522 28.2522 28.2522 28.2522 28.2522 34.2522 28.2522 28.2522 28.2522 28.2522 28.2522 28.2522 28.2522 28.2522 28.2522 28.2522 28.2522 28.2522 28.2522 28.2522 28.2522 28.2522 28.2522 28.2522 28.2522 28.2522 28.2522 28.2522 28.2522 28.2522 28.2522 77.2522 28.2522 28.2522 28.2522 28.2522 28.2522 28.2522 28.2522 28.2522 28.2522 28.2522 28.2522 28.2522 28.2522 28.2522 28.2522 28.2522 28.2522 28.2522 28.2522 28.2522 28.2522 28.2522 28.2522 28.2522 28.2522 28.2522 28.2522 28.2522 28.2522 28.2522 28.2522 28.2522 28.2522 33.2522 28.2522 28.2522 28.2522 28.2522 28.2522 28.2522 28.2522 28.2522 28.2522 28.2522 28.2522 28.2522 28.2522 28.2522 28.2522 28.2522 28.2522 28.2522 28.2522 28.2522 28.2522 28.2522 28.2522 28.2522 28.2522 28.2522 28.2522 28.2522 28.2522 28.2522 28.2522 28.2522 28.2522 28.2522 28.2522 28.2522 28.2522 28.2522 28.2522 28.2522 28.2522 28.2522 28.2522 28.2522 28.2522 28.2522 28.2522 28.2522 28.2522 28.2522 28.2522 28.2522 28.2522 28.2522 28.2522 28.2522 28.2522 28.2522 28.2522 28.2522 28.2522 28.2522 28.2522 28.2522 28.2522 28.2522 28.2522 28.2522 282.252 28.2522 90.2522 28.2522 28.2522 28.2522 28.2522 28.2522 28.2522 28.2522 28.2522 28.2522 28.2522 28.2522 28.2522 28.2522 28.2522 28.2522 28.2522 28.2522 29.2522 28.2522 28.2522 28.2522 152.252 28.2522 28.2522 28.2522 28.2522 28.2522 28.2522 28.2522 28.2522 28.2522 28.2522 28.2522 28.2522 28.2522 28.2522 28.2522 28.2522 28.2522 28.2522 28.2522 28.2522 28.2522 28.2522 28.2522 28.2522 28.2522 28.2522 28.2522 28.2522 64.2522 100.252 28.2522 28.2522 28.2522 28.2522 28.2522 28.2522 28.2522 28.2522 28.2522 28.2522 28.2522 28.2522 28.2522 28.2522 28.2522 28.2522 28.2522 72.2522 28.2522 28.2522 28.2522 28.2522 28.2522 28.2522 28.2522 28.2522 28.2522 28.2522 28.2522 28.2522 28.2522 28.2522 28.2522 28.2522 28.2522 28.2522 28.2522 28.2522 28.2522 28.2522 28.2522 28.2522 28.2522 28.2522 28.2522 28.2522 28.2522 28.2522 28.2522 28.2522 28.2522 28.2522 28.2522 28.2522 28.2522 52.2522 84.2522 182.252 28.2522 28.2522 28.2522 28.2522 28.2522 28.2522 28.2522 28.2522 28.2522 28.2522 28.2522 45.2522 28.2522 28.2522 28.2522 28.2522 28.2522 28.2522 28.2522 28.2522 28.2522 28.2522 28.2522 28.2522 28.2522 28.2522 28.2522 28.2522 28.2522 28.2522 28.2522 28.2522 28.2522 28.2522 28.2522 28.2522 28.2522 28.2522 28.2522 28.2522 28.2522 28.2522 28.2522 28.2522 28.2522 28.2522 28.2522 28.2522 28.2522 28.2522 28.2522 28.2522 28.2522 28.2522 28.2522 28.2522 28.2522 28.2522 28.2522 28.2522 28.2522 28.2522 28.2522 28.2522 28.2522 28.2522 28.2522 28.2522 28.2522 28.2522 28.2522 28.2522 28.2522 28.2522 28.2522 28.2522 28.2522 28.2522 28.2522 28.2522 28.2522 28.2522 28.2522 28.2522 28.2522 28.2522 28.2522 28.2522 28.2522 28.2522 28.2522 28.2522 28.2522 28.2522 28.2522 28.2522 28.2522 28.2522 28.2522 28.2522 28.2522 28.2522 75.2522 28.2522 28.2522 28.2522 28.2522 28.2522 28.2522 28.2522 28.2522 28.2522 28.2522 28.2522 28.2522 28.2522 1416.3 28.2522 28.2522 28.2522 28.2522 28.2522 28.2522 28.2522 28.2522 28.2522 28.2522 28.2522 28.2522 28.2522 102.252 28.2522 28.2522 28.2522 28.2522 28.2522 28.2522 28.2522 28.2522 28.2522 28.2522 28.2522 28.2522 28.2522 28.2522 28.2522 28.2522 28.2522 28.2522 28.2522 28.2522 28.2522 28.2522 28.2522 28.2522 28.2522 28.2522 28.2522 28.2522 28.2522 28.2522 28.2522 28.2522 28.2522 28.2522 28.2522 28.2522 28.2522 28.2522 30.2522 28.2522 28.2522 28.2522 28.2522 28.2522 28.2522 28.2522 28.2522 28.2522 28.2522 28.2522 28.2522 28.2522 28.2522 28.2522 28.2522 28.2522 28.2522 28.2522 28.2522 28.2522 28.2522 240.252 28.2522 28.2522 28.2522 28.2522 28.2522 28.2522 28.2522 28.2522 28.2522 28.2522 28.2522 28.2522 28.2522 28.2522 28.2522 28.2522 28.2522 28.2522 28.2522 28.2522 28.2522 28.2522 28.2522 28.2522 28.2522 28.2522 28.2522 28.2522 28.2522 28.2522 28.2522 28.2522 28.2522 28.2522 28.2522 28.2522 28.2522 28.2522 34.2522 49.2522 29.2522 28.2522 28.2522 28.2522 28.2522 28.2522 28.2522 28.2522 28.2522 28.2522 28.2522 28.2522 28.2522 28.2522 28.2522 28.2522 28.2522 28.2522 48.2522 28.2522 28.2522 28.2522 28.2522 28.2522 28.2522 28.2522 28.2522 28.2522 28.2522 28.2522 28.2522 28.2522 28.2522 28.2522 28.2522 28.2522 28.2522 28.2522 28.2522 28.2522 62.2522 58.2522 28.2522 28.2522 28.2522 28.2522 28.2522 30.2522 28.2522 28.2522 28.2522 28.2522 28.2522 28.2522 28.2522 28.2522 28.2522 28.2522 28.2522 28.2522 28.2522 28.2522 28.2522 28.2522 28.2522 30.2522 28.2522 28.2522 28.2522 28.2522 28.2522 28.2522 40.2522 28.2522 28.2522 28.2522 28.2522 28.2522 28.2522 28.2522 28.2522 28.2522 28.2522 28.2522 28.2522 28.2522 28.2522 28.2522 28.2522 56.2522 28.2522 28.2522 28.2522 28.2522 28.2522 28.2522 28.2522 28.2522 28.2522 28.2522 28.2522 28.2522 28.2522 28.2522 28.2522 28.2522 28.2522 28.2522 28.2522 28.2522 28.2522 28.2522 28.2522 28.2522 82.2522 28.2522 28.2522 28.2522 28.2522 28.2522 28.2522 28.2522 28.2522 28.2522 28.2522 86.2522 28.2522 28.2522 28.2522 28.2522 28.2522 28.2522 28.2522 28.2522 28.2522 78.2522 28.2522 28.2522 28.2522 28.2522 28.2522 28.2522 28.2522 28.2522 28.2522 28.2522 28.2522 28.2522 28.2522 118.252 214.252 28.2522 28.2522 28.2522 28.2522 28.2522 28.2522 173.252 28.2522 28.2522 28.2522 28.2522 28.2522 28.2522 28.2522 28.2522 28.2522 28.2522 28.2522 28.2522 28.2522 28.2522 28.2522 28.2522 28.2522 28.2522 28.2522 28.2522 28.2522 28.2522 28.2522 28.2522 28.2522 28.2522 28.2522 28.2522 28.2522 28.2522 28.2522 28.2522 28.2522 28.2522 28.2522 28.2522 28.2522 28.2522 28.2522 28.2522 28.2522 28.2522 28.2522 28.2522 28.2522 28.2522 28.2522 28.2522 28.2522 28.2522 28.2522 28.2522 28.2522 28.2522 28.2522 28.2522 28.2522 28.2522 28.2522 28.2522 28.2522 32.2522 28.2522 28.2522 28.2522 28.2522 84.2522 28.2522 28.2522 28.2522 28.2522 28.2522 28.2522 28.2522 28.2522 28.2522 28.2522 28.2522 28.2522 28.2522 28.2522 28.2522 30.2522 28.2522 28.2522 28.2522 28.2522 28.2522 28.2522 28.2522 28.2522 28.2522 28.2522 28.2522 28.2522 28.2522 28.2522 28.2522 28.2522 28.2522 28.2522 28.2522 28.2522 28.2522 28.2522 28.2522 28.2522 28.2522 28.2522 28.2522 28.2522 28.2522 28.2522 28.2522 28.2522 28.2522 28.2522 28.2522 28.2522 28.2522 28.2522 28.2522 28.2522 28.2522 28.2522 28.2522 28.2522 28.2522 28.2522 28.2522 28.2522 28.2522 28.2522 28.2522 88.2522 28.2522 28.2522 28.2522 28.2522 28.2522 28.2522 28.2522 28.2522 28.2522 28.2522 28.2522 28.2522 28.2522 28.2522 28.2522 28.2522 28.2522 28.2522 28.2522 28.2522 28.2522 28.2522 28.2522 28.2522 274.252 28.2522 28.2522 28.2522 28.2522 28.2522 28.2522 28.2522 28.2522 28.2522 28.2522 28.2522 28.2522 28.2522 28.2522 28.2522 28.2522 28.2522 34.2522 28.2522 28.2522 28.2522 28.2522 28.2522 28.2522 28.2522 28.2522 28.2522 28.2522 28.2522 28.2522 28.2522 28.2522 28.2522 28.2522 28.2522 28.2522 28.2522 28.2522 28.2522 28.2522 28.2522 28.2522 28.2522 28.2522 28.2522 29.2522 28.2522 28.2522 28.2522 28.2522 28.2522 103.252 28.2522 28.2522 28.2522 28.2522 28.2522 28.2522 28.2522 446.252 28.2522 28.2522 28.2522 28.2522 28.2522 28.2522 28.2522 28.2522 28.2522 28.2522 28.2522 28.2522 28.2522 28.2522 28.2522 28.2522 28.2522 28.2522 28.2522 
rewards of Offsets elements: 0 106 0 0 0 0 0 0 0 0 26 1206 0 0 45 0 0 0 0 0 0 0 0 0 0 0 0 0 0 66 12 213 0 0 0 25 56 0 0 0 0 0 0 0 0 0 0 811 619 0 33 0 0 0 283 0 0 0 0 0 0 0 0 0 0 0 0 0 28 0 3 1 0 0 0 0 0 0 0 0 0 0 0 0 0 0 0 4 36 0 0 0 141 0 0 0 0 0 0 0 0 0 0 0 0 0 0 0 1 18 0 0 0 0 0 0 4 0 0 0 0 0 0 0 0 0 0 0 0 0 0 0 0 0 0 0 0 0 0 0 0 0 0 0 1051 0 5 0 0 0 0 0 0 1281 0 0 0 0 0 0 0 0 0 0 0 0 0 0 1135 0 0 1253 0 0 0 0 0 0 0 0 0 0 0 0 0 0 0 0 240 0 511 0 0 0 209 0 0 0 0 0 0 0 0 0 0 0 0 0 0 0 112 0 0 162 0 0 0 0 0 0 0 0 0 0 95 0 42 34 1558 0 0 485 0 0 0 967 0 0 0 78 572 0 0 0 0 0 0 0 0 0 0 0 0 2 0 0 4 0 0 0 0 0 0 246 640 140 178 114 196 0 0 0 2 0 0 0 0 0 0 0 0 0 0 0 0 0 0 0 0 0 0 0 0 0 0 0 0 0 0 0 0 0 0 0 0 0 0 0 0 0 0 0 0 0 0 0 0 0 0 0 0 0 0 0 0 0 56 224 196 15 0 14 6 41 0 2 0 0 0 0 0 0 17 0 0 189 0 0 0 0 0 0 0 0 12 0 0 0 0 0 0 0 0 0 0 0 0 0 0 0 0 0 0 0 0 0 0 0 0 0 0 0 0 0 1 0 0 0 0 0 0 0 0 0 0 0 0 53 672 0 594 163 0 330 345 0 0 0 0 0 0 0 0 0 0 12 0 0 0 0 0 0 0 108 100 0 0 0 0 0 0 0 0 0 0 0 0 0 0 0 1363 0 0 0 0 0 0 186 0 0 0 0 0 0 0 0 0 0 0 0 0 0 0 0 0 0 0 0 4 0 0 0 0 0 0 0 0 0 0 0 0 0 0 0 121 0 95 0 0 0 0 0 0 0 0 0 0 0 174 1 0 0 0 0 48 1050 0 0 0 9 0 0 0 0 0 0 0 0 0 0 235 0 0 0 0 0 0 0 0 0 101 0 0 377 14 1 0 0 0 0 0 0 0 0 0 0 0 0 0 0 0 0 0 0 0 0 0 0 0 0 0 0 0 0 0 0 0 0 0 9 2 0 0 0 0 120 990 0 46 0 0 0 0 0 0 0 38 0 0 0 0 0 0 0 0 0 0 0 0 0 0 0 0 0 0 0 23 0 0 0 0 36 0 0 0 0 1 0 0 0 0 0 81 0 0 0 388 167 0 0 0 0 0 0 0 0 0 1 40 3 0 0 5 0 51 0 0 0 1 81 0 0 0 0 0 0 0 0 8 0 0 0 0 0 0 0 0 0 0 0 0 0 0 0 0 0 0 0 0 0 0 64 0 0 0 0 0 0 0 0 0 0 0 0 0 0 0 0 0 0 0 0 40 0 0 0 0 0 0 0 0 920 232 0 0 1 0 0 0 0 176 239 0 0 0 0 0 0 0 0 0 0 0 0 0 0 0 0 0 0 0 0 0 0 0 0 0 0 0 0 0 0 0 0 0 0 0 0 0 0 48 0 0 0 0 0 0 0 0 0 0 14 24 0 0 0 0 0 0 0 608 116 9 0 0 0 0 0 0 0 0 4 0 0 10 60 0 0 0 0 0 0 0 59 0 19 0 0 0 0 0 0 0 0 0 0 0 0 0 0 0 0 0 0 0 0 0 0 0 9 0 0 0 12 1 0 0 0 0 0 0 0 0 9 0 0 0 283 9 20 0 0 36 33 138 7 0 0 0 0 0 0 98 0 0 0 0 464 0 0 0 0 0 0 0 0 0 0 0 0 12 0 0 0 0 0 0 0 0 9 0 0 0 3 0 0 0 0 0 0 0 0 0 0 6 0 0 0 0 0 0 0 0 1 1 0 0 0 0 0 0 0 5 0 0 0 41 0 0 1 2 0 0 0 0 0 0 0 2 0 0 31 0 0 0 0 0 0 0 0 0 0 0 0 0 0 0 0 0 0 0 0 0 0 0 0 6 0 0 0 0 205 0 0 0 0 0 0 0 0 0 0 0 0 0 0 0 0 0 0 41 0 0 0 0 0 0 0 0 0 0 0 0 129 0 0 0 0 24 0 0 86 2 0 0 0 0 0 0 0 0 0 0 0 0 0 0 0 9 0 0 0 0 0 0 0 0 76 0 0 0 2 0 0 0 0 45 0 0 3 58 0 0 0 0 0 0 0 0 35 0 0 0 0 0 0 0 0 0 0 0 0 0 0 0 0 0 0 0 0 0 0 0 0 0 0 0 0 0 0 0 0 0 0 31 47 0 0 0 0 0 0 0 0 0 0 0 0 0 0 0 0 0 0 0 0 0 0 0 0 0 0 38 0 0 0 0 0 0 0 0 0 51 0 0 0 0 0 0 0 0 0 0 23 0 2 0 0 0 0 0 0 0 0 0 0 0 0 0 1 0 0 0 1 0 0 0 0 0 0 0 0 0 0 0 0 0 0 0 0 0 0 0 0 0 59 130 0 0 0 0 0 0 0 0 87 133 0 0 0 62 32 162 0 0 1 2 0 0 0 0 0 0 132 0 0 0 0 0 0 4 0 0 0 0 0 0 0 0 0 0 0 0 0 0 0 0 0 0 0 0 0 0 0 0 0 0 0 0 0 0 0 0 0 0 0 0 0 0 0 0 264 0 0 0 0 0 0 0 0 0 0 0 0 0 0 0 0 0 0 0 179 0 86 1 0 8 0 0 0 0 0 0 0 0 0 0 0 0 0 121 0 0 0 0 0 0 0 0 0 0 0 0 0 0 0 0 0 0 0 0 0 0 0 0 0 0 0 0 0 0 0 0 252 120 0 118 24 0 0 0 224 0 0 0 0 0 0 0 0 0 0 0 0 6 0 6 0 23 0 0 0 0 0 0 0 0 0 0 0 0 0 0 0 22 1040 231 0 0 0 0 0 0 0 0 0 0 0 0 0 0 0 0 0 0 0 0 0 0 0 0 0 0 0 0 0 0 0 0 0 0 0 0 3 0 0 0 0 0 0 6 0 0 0 0 0 0 0 0 0 0 0 0 0 0 0 0 0 0 0 0 0 0 0 0 0 49 0 0 0 0 0 0 0 0 0 0 0 0 0 0 0 0 0 0 0 0 0 0 0 0 0 0 0 0 0 0 0 0 0 5 0 0 0 0 0 0 0 0 0 0 0 0 0 0 0 0 0 0 0 0 0 0 0 0 0 0 0 0 0 0 0 0 0 0 0 0 0 0 0 0 0 0 0 0 0 0 0 0 0 0 0 0 0 0 0 0 0 0 0 0 0 0 0 0 0 0 0 0 254 0 62 0 0 0 0 0 0 0 0 0 0 0 0 0 0 0 0 0 1 0 0 0 124 0 0 0 0 0 0 0 0 0 0 0 0 0 0 0 0 0 0 0 0 0 0 0 0 0 0 0 0 36 72 0 0 0 0 0 0 0 0 0 0 0 0 0 0 0 0 0 44 0 0 0 0 0 0 0 0 0 0 0 0 0 0 0 0 0 0 0 0 0 0 0 0 0 0 0 0 0 0 0 0 0 0 0 0 0 24 56 154 0 0 0 0 0 0 0 0 0 0 0 17 0 0 0 0 0 0 0 0 0 0 0 0 0 0 0 0 0 0 0 0 0 0 0 0 0 0 0 0 0 0 0 0 0 0 0 0 0 0 0 0 0 0 0 0 0 0 0 0 0 0 0 0 0 0 0 0 0 0 0 0 0 0 0 0 0 0 0 0 0 0 0 0 0 0 0 0 0 0 0 0 0 0 0 0 0 0 0 0 0 0 47 0 0 0 0 0 0 0 0 0 0 0 0 0 1414 0 0 0 0 0 0 0 0 0 0 0 0 0 74 0 0 0 0 0 0 0 0 0 0 0 0 0 0 0 0 0 0 0 0 0 0 0 0 0 0 0 0 0 0 0 0 0 0 0 0 0 0 2 0 0 0 0 0 0 0 0 0 0 0 0 0 0 0 0 0 0 0 0 0 0 212 0 0 0 0 0 0 0 0 0 0 0 0 0 0 0 0 0 0 0 0 0 0 0 0 0 0 0 0 0 0 0 0 0 0 0 0 0 0 6 21 1 0 0 0 0 0 0 0 0 0 0 0 0 0 0 0 0 0 20 0 0 0 0 0 0 0 0 0 0 0 0 0 0 0 0 0 0 0 0 0 34 30 0 0 0 0 0 2 0 0 0 0 0 0 0 0 0 0 0 0 0 0 0 0 0 2 0 0 0 0 0 0 12 0 0 0 0 0 0 0 0 0 0 0 0 0 0 0 0 28 0 0 0 0 0 0 0 0 0 0 0 0 0 0 0 0 0 0 0 0 0 0 0 0 54 0 0 0 0 0 0 0 0 0 0 58 0 0 0 0 0 0 0 0 0 50 0 0 0 0 0 0 0 0 0 0 0 0 0 90 186 0 0 0 0 0 0 145 0 0 0 0 0 0 0 0 0 0 0 0 0 0 0 0 0 0 0 0 0 0 0 0 0 0 0 0 0 0 0 0 0 0 0 0 0 0 0 0 0 0 0 0 0 0 0 0 0 0 0 0 0 0 0 0 0 0 0 0 0 4 0 0 0 0 56 0 0 0 0 0 0 0 0 0 0 0 0 0 0 0 2 0 0 0 0 0 0 0 0 0 0 0 0 0 0 0 0 0 0 0 0 0 0 0 0 0 0 0 0 0 0 0 0 0 0 0 0 0 0 0 0 0 0 0 0 0 0 0 0 0 0 0 60 0 0 0 0 0 0 0 0 0 0 0 0 0 0 0 0 0 0 0 0 0 0 0 0 246 0 0 0 0 0 0 0 0 0 0 0 0 0 0 0 0 0 6 0 0 0 0 0 0 0 0 0 0 0 0 0 0 0 0 0 0 0 0 0 0 0 0 0 0 0 1 0 0 0 0 0 75 0 0 0 0 0 0 0 418 0 0 0 0 0 0 0 0 0 0 0 0 0 0 0 0 0 0 0 Printing Sanity3
offset_index value2292
offset list size2292
reward size2292
potential size2292
-----------------------------------------------------------------------------------------------------------------------------------------------------------------------------------------------------

DRAM Statistics
 CHANNEL 0
 RQ ROW_BUFFER_HIT:      50715  ROW_BUFFER_MISS:      80450
 DBUS_CONGESTED:         50
 WQ ROW_BUFFER_HIT:       7764  ROW_BUFFER_MISS:      73461  FULL:          0

 AVG_CONGESTED_CYCLE: 5
 All warmup complete: 2
Channel 0 Bank busy for read cycles: 0
Channel 0 Bank busy for write cycles: 0
Channel 0
Rank 0
0banks busy for read cycles: 580471901
0banks busy for write cycles: 16150
1banks busy for read cycles: 3493898
1banks busy for write cycles: 2127341
2banks busy for read cycles: 488621
2banks busy for write cycles: 455259
3banks busy for read cycles: 329972
3banks busy for write cycles: 252186
4banks busy for read cycles: 249887
4banks busy for write cycles: 193295
5banks busy for read cycles: 184964
5banks busy for write cycles: 180568
6banks busy for read cycles: 195937
6banks busy for write cycles: 188483
7banks busy for read cycles: 203166
7banks busy for write cycles: 247758
8banks busy for read cycles: 585755
8banks busy for write cycles: 661191

CPU 0 Branch Prediction Accuracy: 99.7935% MPKI: 0.36428 Average ROB Occupancy at Mispredict: 45.9752
Branch types
NOT_BRANCH: 164718798 82.3594%
BRANCH_DIRECT_JUMP: 2146750 1.07337%
BRANCH_INDIRECT: 11246234 5.62312%
BRANCH_CONDITIONAL: 13931170 6.96558%
BRANCH_DIRECT_CALL: 3361643 1.68082%
BRANCH_INDIRECT_CALL: 616815 0.308407%
BRANCH_RETURN: 3978396 1.9892%
BRANCH_OTHER: 0 0%

DRAM PAGES: 1048576
Allocated PAGES: 2897
