
*** ChampSim Multicore Out-of-Order Simulator ***

Warmup Instructions: 50000000
Simulation Instructions: 200000000
Number of CPUs: 1
LLC sets: 2048
LLC ways: 16
Off-chip DRAM Size: 4096 MB Channels: 1 Width: 64-bit Data Rate: 6400 MT/s
CPU 0 runs traces/spec2k17/server_036.champsimtrace.xz
.xz
BTB has LRU replacement policy
ITLB has LRU replacement policy
DTLB has LRU replacement policy
STLB has LRU replacement policy
L1I has LRU replacement policy
L1D has LRU replacement policy
Initialize SRRIP state for L2C
Initialize DRRIP state for LLC
Heartbeat CPU 0 instructions: 10000000 cycles: 2724450 heartbeat IPC: 3.67047 cumulative IPC: 3.67047 (Simulation time: 0 hr 0 min 25 sec) 
Heartbeat CPU 0 instructions: 20000002 cycles: 5447566 heartbeat IPC: 3.67226 cumulative IPC: 3.67136 (Simulation time: 0 hr 0 min 55 sec) 
Heartbeat CPU 0 instructions: 30000002 cycles: 8171753 heartbeat IPC: 3.67082 cumulative IPC: 3.67118 (Simulation time: 0 hr 1 min 25 sec) 
Heartbeat CPU 0 instructions: 40000000 cycles: 10920929 heartbeat IPC: 3.63745 cumulative IPC: 3.66269 (Simulation time: 0 hr 1 min 56 sec) 
Heartbeat CPU 0 instructions: 50000001 cycles: 13643219 heartbeat IPC: 3.67338 cumulative IPC: 3.66482 (Simulation time: 0 hr 2 min 25 sec) 

Warmup complete CPU 0 instructions: 50000001 cycles: 13643219 (Simulation time: 0 hr 2 min 25 sec) 

Offsets elements: 
Potential of Offsets elements: 
rewards of Offsets elements: 
Printing Sanity1
offset list size1476
Offsets elements: 
Potential of Offsets elements: 
rewards of Offsets elements: 2465 0 0 1 4170 815 0 0 0 14 0 0 101 0 0 2272 1984 39 469 577 12 0 1 0 2 292 366 12 0 0 45 0 0 8 0 0 1281 68 6 4 40 8 1636 0 25 0 0 63 0 0 0 80 18 39 0 1 0 5 50 4 16 1 1 0 0 70 0 0 0 120 0 1453 49 21 0 18 254 46 0 0 6 0 13 84 0 0 12 2 0 0 0 85 0 8 8 1 44 609 3 332 0 0 4 0 0 12 86 0 619 2 14 723 18 0 0 10 14 27 21 56 26 1 0 0 0 22 162 0 0 0 4 1 0 0 5 0 0 42 0 0 0 1 0 5 2 0 34 144 21 7 14 6 0 0 154 79 179 0 2 0 0 0 84 0 116 326 374 159 487 50 4 85 25 149 53 0 0 5 19 0 12 4 3 0 8 2 5 40 0 6 0 255 62 0 45 138 51 20 232 386 2101 78 0 12 12 194 10 284 0 34 278 0 0 1033 1232 323 8 24 0 16 1154 0 14 0 0 60 0 959 27 0 0 21 0 84 240 0 789 347 114 109 0 199 0 523 0 141 0 0 152 528 0 170 0 11 0 8 123 0 80 6 0 0 0 3 6 0 720 0 4 0 2 4 0 151 509 357 0 80 129 21 2 379 298 0 4 0 903 37 476 16 440 1 21 0 2 4 0 0 72 457 354 168 0 271 487 0 555 0 91 2 0 0 12 238 9 20 0 386 492 0 165 13 402 47 194 0 49 476 218 128 169 28 3 51 301 134 0 74 607 0 1087 773 105 43 21 0 413 529 283 5 0 249 1287 1021 0 0 371 265 83 0 4 715 0 573 10 0 12 160 0 14 0 10 0 0 1 13 0 0 12 0 20 8 38 232 0 27 0 122 14 1 0 122 175 0 0 302 0 42 0 70 0 0 0 522 13 0 542 10 0 0 84 119 0 0 9 0 0 10 6 0 0 72 24 0 0 60 0 0 1 1 0 0 2 0 0 49 35 0 0 28 0 0 7 12 0 0 94 2 0 0 44 0 0 0 0 0 0 259 0 0 22 13 0 8 25 42 0 30 28 14 0 64 10 0 606 195 418 96 88 74 0 0 8 0 0 392 60 222 145 0 38 75 6 473 30 0 0 595 0 71 26 294 0 17 0 0 0 45 0 0 14 36 0 0 6 0 0 0 139 0 0 5 4 0 0 31 0 0 12 685 115 575 477 241 0 88 452 10 4 0 22 72 128 334 102 0 2 221 4 3 405 341 0 2 12 1 0 0 36 0 3 5 29 707 0 6 0 6 6 0 0 0 6 0 0 18 18 7 0 505 25 0 183 0 0 330 85 4 358 14 1 0 0 430 6 0 73 0 0 4 2 15 0 17 55 0 0 0 68 0 61 226 12 586 0 471 3 0 0 0 76 0 58 1 0 15 36 5 78 270 136 0 8 0 0 6 0 42 0 106 0 0 33 13 470 0 62 0 0 76 0 478 6 26 0 0 289 0 173 0 77 0 0 56 36 556 119 1 20 0 0 0 0 436 0 0 0 20 46 1 342 28 0 0 0 0 73 308 13 3 0 0 8 0 461 122 0 0 64 0 0 34 0 0 6 0 76 0 0 9 0 0 0 0 0 0 26 48 31 0 8 31 0 824 14 243 0 0 13 0 44 0 0 0 45 2 0 202 22 0 0 331 0 0 18 1002 0 0 24 0 0 0 24 0 0 0 3 0 0 213 36 0 248 29 0 0 385 38 0 0 33 4 0 18 40 0 0 16 0 0 320 240 18 0 20 0 0 0 90 1 0 70 2 0 3 41 0 0 0 24 0 7 596 1 1 3 0 55 36 420 10 84 0 0 0 0 76 0 0 0 0 0 0 83 0 53 0 0 16 1 0 74 0 0 409 0 0 0 12 0 0 0 1 0 1 80 62 34 0 12 0 0 244 0 29 0 24 0 0 176 31 22 0 60 2 0 18 2 0 0 9 0 0 3 36 0 0 0 0 0 0 16 0 0 0 2 0 17 94 0 2 0 0 0 11 87 18 0 0 108 0 0 21 126 0 23 62 2 0 0 30 0 0 0 0 1 28 60 0 0 8 0 0 0 40 0 0 0 3 0 0 74 0 2 0 0 0 55 144 66 1 563 14 0 0 0 102 74 0 8 0 0 4 286 30 0 4 73 68 10 162 138 26 25 94 0 8 34 0 0 0 180 86 0 194 87 4 0 30 11 11 94 28 0 42 8 27 0 0 791 0 0 0 0 0 0 546 72 0 0 0 0 5 31 0 36 0 2 0 0 349 0 0 440 538 0 0 150 301 504 229 0 14 0 33 12 6 0 9 0 9 0 3 0 0 2 20 0 0 742 0 0 0 18 0 0 757 36 0 0 113 0 9 410 47 0 0 130 0 16 214 12 0 0 9 0 0 154 68 53 0 51 69 0 0 179 41 10 18 32 13 4 644 0 0 2 115 0 0 140 0 0 1 20 0 14 10 2 0 34 9 0 0 0 37 0 0 24 0 0 0 261 425 4 150 18 269 0 30 0 0 0 30 10 0 0 30 0 0 133 0 0 0 95 0 0 15 14 0 0 44 36 0 11 0 0 0 97 4 0 1 106 59 84 176 1 0 340 36 0 248 96 150 0 28 4 0 0 11 696 2 0 36 5 0 0 53 0 0 13 2 0 0 88 0 0 3 18 0 0 294 4 8 6 0 167 7 2 15 6 1 2 0 0 0 13 22 0 0 0 0 40 5 0 0 1 53 0 14 21 478 0 12 0 0 84 78 353 41 119 137 82 35 56 24 0 0 0 0 0 33 115 0 0 15 0 2 2 39 62 23 20 22 4 26 12 337 32 47 2 1 12 140 649 58 36 0 69 23 0 8 0 54 0 6 220 0 29 0 26 0 0 0 0 360 137 58 20 0 3 129 1 4 26 0 0 59 0 4 88 0 289 0 0 0 0 41 0 0 0 1 25 0 763 0 51 1 0 0 8 3 0 20 0 30 4 0 0 275 0 0 0 0 0 0 32 14 257 38 107 2 0 402 110 3 16 0 2 0 2 0 0 11 68 4 0 30 3 0 0 0 0 0 0 7 0 0 0 0 0 159 60 6 0 4 0 0 100 84 0 0 21 24 0 23 16 8 0 0 0 0 0 71 76 0 0 0 0 105 200 84 223 0 11 1 0 0 549 147 25 4 0 319 177 2 0 69 18 315 0 184 0 2 5 0 168 0 79 76 26 121 0 1 36 98 0 22 0 0 32 3 0 0 0 196 0 0 46 7 0 0 77 4 0 0 32 0 0 0 0 74 0 44 95 47 92 34 0 0 0 0 0 0 361 81 0 
Printing Sanity2
Heartbeat CPU 0 instructions: 60000003 cycles: 31301212 heartbeat IPC: 0.566316 cumulative IPC: 0.566316 (Simulation time: 0 hr 3 min 24 sec) 
Heartbeat CPU 0 instructions: 70000000 cycles: 48815590 heartbeat IPC: 0.570959 cumulative IPC: 0.568628 (Simulation time: 0 hr 4 min 22 sec) 
Heartbeat CPU 0 instructions: 80000002 cycles: 66330979 heartbeat IPC: 0.570927 cumulative IPC: 0.569392 (Simulation time: 0 hr 5 min 19 sec) 
Heartbeat CPU 0 instructions: 90000000 cycles: 83881103 heartbeat IPC: 0.569796 cumulative IPC: 0.569493 (Simulation time: 0 hr 6 min 15 sec) 
Heartbeat CPU 0 instructions: 100000002 cycles: 101404301 heartbeat IPC: 0.570672 cumulative IPC: 0.569729 (Simulation time: 0 hr 7 min 7 sec) 
Heartbeat CPU 0 instructions: 110000000 cycles: 118923897 heartbeat IPC: 0.570789 cumulative IPC: 0.569905 (Simulation time: 0 hr 8 min 3 sec) 
Heartbeat CPU 0 instructions: 120000000 cycles: 136453118 heartbeat IPC: 0.570476 cumulative IPC: 0.569987 (Simulation time: 0 hr 9 min 4 sec) 
*** Reached end of trace for Core: 0 Repeating trace: traces/spec2k17/server_036.champsimtrace.xz
Heartbeat CPU 0 instructions: 130000003 cycles: 154235869 heartbeat IPC: 0.562343 cumulative IPC: 0.56902 (Simulation time: 0 hr 9 min 59 sec) 
Heartbeat CPU 0 instructions: 140000000 cycles: 171700389 heartbeat IPC: 0.572589 cumulative IPC: 0.569414 (Simulation time: 0 hr 10 min 57 sec) 
Heartbeat CPU 0 instructions: 150000000 cycles: 189173179 heartbeat IPC: 0.572318 cumulative IPC: 0.569703 (Simulation time: 0 hr 11 min 54 sec) 
Heartbeat CPU 0 instructions: 160000001 cycles: 208423671 heartbeat IPC: 0.519467 cumulative IPC: 0.564738 (Simulation time: 0 hr 12 min 54 sec) 
Heartbeat CPU 0 instructions: 170000000 cycles: 225937520 heartbeat IPC: 0.570977 cumulative IPC: 0.565253 (Simulation time: 0 hr 13 min 50 sec) 
Heartbeat CPU 0 instructions: 180000000 cycles: 243546865 heartbeat IPC: 0.56788 cumulative IPC: 0.565454 (Simulation time: 0 hr 14 min 46 sec) 
Heartbeat CPU 0 instructions: 190000003 cycles: 261058505 heartbeat IPC: 0.571049 cumulative IPC: 0.56585 (Simulation time: 0 hr 15 min 42 sec) 
Heartbeat CPU 0 instructions: 200000001 cycles: 278573561 heartbeat IPC: 0.570937 cumulative IPC: 0.566187 (Simulation time: 0 hr 16 min 39 sec) 
Heartbeat CPU 0 instructions: 210000003 cycles: 296115916 heartbeat IPC: 0.570049 cumulative IPC: 0.566426 (Simulation time: 0 hr 17 min 37 sec) 
Heartbeat CPU 0 instructions: 220000000 cycles: 313639032 heartbeat IPC: 0.570675 cumulative IPC: 0.566675 (Simulation time: 0 hr 18 min 33 sec) 
Heartbeat CPU 0 instructions: 230000001 cycles: 331160378 heartbeat IPC: 0.570732 cumulative IPC: 0.566899 (Simulation time: 0 hr 19 min 29 sec) 
Heartbeat CPU 0 instructions: 240000001 cycles: 348689174 heartbeat IPC: 0.57049 cumulative IPC: 0.567086 (Simulation time: 0 hr 20 min 27 sec) 
*** Reached end of trace for Core: 0 Repeating trace: traces/spec2k17/server_036.champsimtrace.xz
Heartbeat CPU 0 instructions: 250000000 cycles: 366446703 heartbeat IPC: 0.563141 cumulative IPC: 0.566888 (Simulation time: 0 hr 21 min 24 sec) 
Finished CPU 0 instructions: 200000000 cycles: 352803487 cumulative IPC: 0.566888 (Simulation time: 0 hr 21 min 24 sec) 

ChampSim completed all CPUs

Region of Interest Statistics

CPU 0 cumulative IPC: 0.566888 instructions: 200000000 cycles: 352803487
ITLB TOTAL     ACCESS:   35602984  HIT:   33755381  MISS:    1847603  HIT %:    94.8105  MISS %:    5.18946   MPKI: 9.23802
ITLB LOAD TRANSLATION ACCESS:   35602984  HIT:   33755381  MISS:    1847603  HIT %:    94.8105  MISS %:    5.18946   MPKI: 9.23802
ITLB PREFETCH  REQUESTED:          0  ISSUED:          0  USEFUL:          0  USELESS:          0
ITLB USEFUL LOAD PREFETCHES:          0 PREFETCH ISSUED TO LOWER LEVEL:          0  ACCURACY: -nan
ITLB TIMELY PREFETCHES:          0 LATE PREFETCHES: 0 DROPPED PREFETCHES: 0
ITLB PREFETCHES SAME FILL-ORIGIN LEVEL: 0 DIFFERENT FILL-ORIGIN LEVEL: 0
ITLB AVERAGE MISS LATENCY: 9.02954 cycles
ITLB RQ	ACCESS:   40700729	FORWARD:          0	MERGED:    4730704	TO_CACHE:   35970025

DTLB TOTAL     ACCESS:   40386119  HIT:   39471128  MISS:     914991  HIT %:    97.7344  MISS %:    2.26561   MPKI: 4.57496
DTLB LOAD TRANSLATION ACCESS:   40386119  HIT:   39471128  MISS:     914991  HIT %:    97.7344  MISS %:    2.26561   MPKI: 4.57496
DTLB PREFETCH  REQUESTED:          0  ISSUED:          0  USEFUL:          0  USELESS:          0
DTLB USEFUL LOAD PREFETCHES:          0 PREFETCH ISSUED TO LOWER LEVEL:          0  ACCURACY: -nan
DTLB TIMELY PREFETCHES:          0 LATE PREFETCHES: 0 DROPPED PREFETCHES: 0
DTLB PREFETCHES SAME FILL-ORIGIN LEVEL: 0 DIFFERENT FILL-ORIGIN LEVEL: 0
DTLB AVERAGE MISS LATENCY: 9.16603 cycles
DTLB RQ	ACCESS:   58669077	FORWARD:          0	MERGED:   18210568	TO_CACHE:   40458509

STLB TOTAL     ACCESS:    7056972  HIT:    7055505  MISS:       1467  HIT %:    99.9792  MISS %:   0.020788   MPKI: 0.007335
STLB LOAD TRANSLATION ACCESS:    2762594  HIT:    2761127  MISS:       1467  HIT %:    99.9469  MISS %:  0.0531023   MPKI: 0.007335
STLB TRANSLATION FROM L1D PREFETCHER ACCESS:    4294378  HIT:    4294378  MISS:          0  HIT %:        100  MISS %:          0   MPKI: 0
STLB PREFETCH  REQUESTED:          0  ISSUED:          0  USEFUL:          0  USELESS:          0
STLB USEFUL LOAD PREFETCHES:          0 PREFETCH ISSUED TO LOWER LEVEL:          0  ACCURACY: -nan
STLB TIMELY PREFETCHES:          0 LATE PREFETCHES: 0 DROPPED PREFETCHES: 0
STLB PREFETCHES SAME FILL-ORIGIN LEVEL: 0 DIFFERENT FILL-ORIGIN LEVEL: 0
STLB AVERAGE MISS LATENCY: 111.04 cycles
STLB RQ	ACCESS:    8899515	FORWARD:          0	MERGED:    1842543	TO_CACHE:    7056972

STLB Hit, L1D data hit: 0
STLB Hit, L2C data hit: 0
STLB Hit, LLC data hit: 0
STLB Hit, LLC data miss: 0
STLB STLB hints to L2: 0
L1D TOTAL     ACCESS:   64744547  HIT:   64671272  MISS:      73275  HIT %:    99.8868  MISS %:   0.113176   MPKI: 0.366375
L1D LOAD      ACCESS:   30314212  HIT:   30283327  MISS:      30885  HIT %:    99.8981  MISS %:   0.101883   MPKI: 0.154425
L1D RFO       ACCESS:   28293420  HIT:   28251191  MISS:      42229  HIT %:    99.8507  MISS %:   0.149254   MPKI: 0.211145
L1D PREFETCH  ACCESS:    6136915  HIT:    6136754  MISS:        161  HIT %:    99.9974  MISS %: 0.00262347   MPKI: 0.000805
AGUS PREFETCH L1 MISS: 0
L1D PREFETCH  REQUESTED:   12462643  ISSUED:   12462643  USEFUL:        106  USELESS:         49
L1D USEFUL LOAD PREFETCHES:        106 PREFETCH ISSUED TO LOWER LEVEL:        161  ACCURACY: 65.8385
L1D TIMELY PREFETCHES:        106 LATE PREFETCHES: 0 DROPPED PREFETCHES: 0
L1D PREFETCHES SAME FILL-ORIGIN LEVEL: 161 DIFFERENT FILL-ORIGIN LEVEL: 0
L1D AVERAGE MISS LATENCY: 160.681 cycles
L1D RQ	ACCESS:   47354032	FORWARD:          0	MERGED:   16693180	TO_CACHE:   30316862
L1D WQ	ACCESS:   28475378	FORWARD:     344027	MERGED:     123163	TO_CACHE:   28352215
L1D PQ	ACCESS:    6325722	FORWARD:          0	MERGED:     188764	TO_CACHE:    6136921

L1D UNIQUE REGIONS ACCESSED: 0
L1D REGIONS CONFLICTS: 0
L1D Cross Page Prefetch Requests: 112350
L1D Same Page Prefetch Requests: 6213372
L1D ROI Sum of L1D PQ occupancy: 75341066
L1D PREFETCHES PUSHED FROM L2C: 0
L1I TOTAL     ACCESS:   36330214  HIT:   21994785  MISS:   14335429  HIT %:    60.5413  MISS %:    39.4587   MPKI: 71.6771
L1I LOAD      ACCESS:   36330214  HIT:   21994785  MISS:   14335429  HIT %:    60.5413  MISS %:    39.4587   MPKI: 71.6771
L1I PREFETCH  REQUESTED:          0  ISSUED:          0  USEFUL:          0  USELESS:          0
L1I USEFUL LOAD PREFETCHES:          0 PREFETCH ISSUED TO LOWER LEVEL:          0  ACCURACY: -nan
L1I TIMELY PREFETCHES:          0 LATE PREFETCHES: 0 DROPPED PREFETCHES: 0
L1I PREFETCHES SAME FILL-ORIGIN LEVEL: 0 DIFFERENT FILL-ORIGIN LEVEL: 0
L1I AVERAGE MISS LATENCY: 14.1313 cycles
L1I RQ	ACCESS:   60666166	FORWARD:          0	MERGED:   19965437	TO_CACHE:   40700729

BTB TOTAL     ACCESS:   25908287  HIT:   23514246  MISS:    2394041  HIT %:    90.7596  MISS %:    9.24044   MPKI: 11.9702
BTB BRANCH_DIRECT_JUMP	ACCESS:    1774351  HIT:    1739635  MISS:      34716
BTB BRANCH_INDIRECT	ACCESS:   11507662  HIT:   10680986  MISS:     826676
BTB BRANCH_CONDITIONAL	ACCESS:    4376081  HIT:    4361317  MISS:      14764
BTB BRANCH_DIRECT_CALL	ACCESS:    3347214  HIT:    3281604  MISS:      65610
BTB BRANCH_INDIRECT_CALL	ACCESS:     777882  HIT:     612337  MISS:     165545
BTB BRANCH_RETURN	ACCESS:    4125097  HIT:    2838367  MISS:    1286730
BTB BRANCH_OTHER ACCESS:          0  HIT:          0  MISS:          0

L2C TOTAL     ACCESS:   14459723  HIT:   14387703  MISS:      72020  HIT %:    99.5019  MISS %:   0.498073   MPKI: 0.3601
L2C LOAD      ACCESS:   14366314  HIT:   14330041  MISS:      36273  HIT %:    99.7475  MISS %:   0.252486   MPKI: 0.181365
L2C DATA LOAD MPKI: 0.11865
L2C INSTRUCTION LOAD MPKI: 0.062715
L2C RFO       ACCESS:      42229  HIT:       8962  MISS:      33267  HIT %:    21.2224  MISS %:    78.7776   MPKI: 0.166335
L2C PREFETCH  ACCESS:        161  HIT:        103  MISS:         58  HIT %:    63.9752  MISS %:    36.0248   MPKI: 0.00029
AGUS PREFETCH L1 MISS: 0
L2C DATA PREFETCH MPKI: 0.00029
L2C INSTRUCTION PREFETCH MPKI: 0
L2C WRITEBACK ACCESS:      49354  HIT:      47748  MISS:       1606  HIT %:     96.746  MISS %:    3.25404   MPKI: 0.00803
L2C LOAD TRANSLATION ACCESS:       1665  HIT:        849  MISS:        816  HIT %:     50.991  MISS %:     49.009   MPKI: 0.00408
L2C PREFETCH  REQUESTED:          0  ISSUED:          0  USEFUL:          6  USELESS:         40
L2C USEFUL LOAD PREFETCHES:          6 PREFETCH ISSUED TO LOWER LEVEL:         58  ACCURACY: 10.3448
L2C TIMELY PREFETCHES:          6 LATE PREFETCHES: 0 DROPPED PREFETCHES: 0
L2C PREFETCHES SAME FILL-ORIGIN LEVEL: 0 DIFFERENT FILL-ORIGIN LEVEL: 0
L2C AVERAGE MISS LATENCY: 168.719 cycles
L2C RQ	ACCESS:   14410208	FORWARD:          0	MERGED:          0	TO_CACHE:   14410208
L2C WQ	ACCESS:      49354	FORWARD:          0	MERGED:          0	TO_CACHE:      49354
L2C PQ	ACCESS:        161	FORWARD:          0	MERGED:          0	TO_CACHE:        161

L2C Instructions Evicting Data 10321
L2C Translations Evicting Data 659
L2C Data Evicting Data 46638
L2C Instructions Evicting Instructions 2064
L2C Translations Evicting Instructions 139
L2C Data Evicting Instructions 9803
L2C Instructions Evicting Translations 158
L2C Translations Evicting Translations 18
L2C Data Evicting Translations 614
L2C Dense regions hint from L2: 0
PSCL5 TOTAL     ACCESS:       1467  HIT:       1467  MISS:          0  HIT %:        100  MISS %:          0   MPKI: 0
PSCL5 LOAD TRANSLATION ACCESS:       1467  HIT:       1467  MISS:          0  HIT %:        100  MISS %:          0   MPKI: 0
PSCL5 PREFETCH  REQUESTED:          0  ISSUED:          0  USEFUL:          0  USELESS:          0
PSCL5 USEFUL LOAD PREFETCHES:          0 PREFETCH ISSUED TO LOWER LEVEL:          0  ACCURACY: -nan
PSCL5 TIMELY PREFETCHES:          0 LATE PREFETCHES: 0 DROPPED PREFETCHES: 0
PSCL5 PREFETCHES SAME FILL-ORIGIN LEVEL: 0 DIFFERENT FILL-ORIGIN LEVEL: 0

PSCL4 TOTAL     ACCESS:       1212  HIT:       1201  MISS:         11  HIT %:    99.0924  MISS %:   0.907591   MPKI: 5.5e-05
PSCL4 LOAD TRANSLATION ACCESS:       1212  HIT:       1201  MISS:         11  HIT %:    99.0924  MISS %:   0.907591   MPKI: 5.5e-05
PSCL4 PREFETCH  REQUESTED:          0  ISSUED:          0  USEFUL:          0  USELESS:          0
PSCL4 USEFUL LOAD PREFETCHES:          0 PREFETCH ISSUED TO LOWER LEVEL:          0  ACCURACY: -nan
PSCL4 TIMELY PREFETCHES:          0 LATE PREFETCHES: 0 DROPPED PREFETCHES: 0
PSCL4 PREFETCHES SAME FILL-ORIGIN LEVEL: 0 DIFFERENT FILL-ORIGIN LEVEL: 0

PSCL3 TOTAL     ACCESS:       1362  HIT:       1351  MISS:         11  HIT %:    99.1924  MISS %:   0.807636   MPKI: 5.5e-05
PSCL3 LOAD TRANSLATION ACCESS:       1362  HIT:       1351  MISS:         11  HIT %:    99.1924  MISS %:   0.807636   MPKI: 5.5e-05
PSCL3 PREFETCH  REQUESTED:          0  ISSUED:          0  USEFUL:          0  USELESS:          0
PSCL3 USEFUL LOAD PREFETCHES:          0 PREFETCH ISSUED TO LOWER LEVEL:          0  ACCURACY: -nan
PSCL3 TIMELY PREFETCHES:          0 LATE PREFETCHES: 0 DROPPED PREFETCHES: 0
PSCL3 PREFETCHES SAME FILL-ORIGIN LEVEL: 0 DIFFERENT FILL-ORIGIN LEVEL: 0

PSCL2 TOTAL     ACCESS:       1467  HIT:       1291  MISS:        176  HIT %:    88.0027  MISS %:    11.9973   MPKI: 0.00088
PSCL2 LOAD TRANSLATION ACCESS:       1467  HIT:       1291  MISS:        176  HIT %:    88.0027  MISS %:    11.9973   MPKI: 0.00088
PSCL2 PREFETCH  REQUESTED:          0  ISSUED:          0  USEFUL:          0  USELESS:          0
PSCL2 USEFUL LOAD PREFETCHES:          0 PREFETCH ISSUED TO LOWER LEVEL:          0  ACCURACY: -nan
PSCL2 TIMELY PREFETCHES:          0 LATE PREFETCHES: 0 DROPPED PREFETCHES: 0
PSCL2 PREFETCHES SAME FILL-ORIGIN LEVEL: 0 DIFFERENT FILL-ORIGIN LEVEL: 0

LLC TOTAL     ACCESS:     108533  HIT:      64139  MISS:      44394  HIT %:    59.0963  MISS %:    40.9037   MPKI: 0.22197
LLC LOAD      ACCESS:      36273  HIT:      13276  MISS:      22997  HIT %:    36.6002  MISS %:    63.3998   MPKI: 0.114985
LLC RFO       ACCESS:      33267  HIT:      12764  MISS:      20503  HIT %:    38.3684  MISS %:    61.6316   MPKI: 0.102515
LLC PREFETCH  ACCESS:         58  HIT:         20  MISS:         38  HIT %:    34.4828  MISS %:    65.5172   MPKI: 0.00019
AGUS PREFETCH L1 MISS: 0
LLC WRITEBACK ACCESS:      38119  HIT:      37780  MISS:        339  HIT %:    99.1107  MISS %:    0.88932   MPKI: 0.001695
LLC LOAD TRANSLATION ACCESS:        816  HIT:        299  MISS:        517  HIT %:    36.6422  MISS %:    63.3578   MPKI: 0.002585
LLC PREFETCH  REQUESTED:          0  ISSUED:          0  USEFUL:          4  USELESS:          8
LLC USEFUL LOAD PREFETCHES:          4 PREFETCH ISSUED TO LOWER LEVEL:         38  ACCURACY: 10.5263
LLC TIMELY PREFETCHES:          4 LATE PREFETCHES: 0 DROPPED PREFETCHES: 0
LLC PREFETCHES SAME FILL-ORIGIN LEVEL: 0 DIFFERENT FILL-ORIGIN LEVEL: 0
LLC AVERAGE MISS LATENCY: 226.099 cycles
LLC RQ	ACCESS:      70356	FORWARD:          0	MERGED:          0	TO_CACHE:      70356
LLC WQ	ACCESS:      38119	FORWARD:          0	MERGED:          0	TO_CACHE:      38119
LLC PQ	ACCESS:         58	FORWARD:          0	MERGED:          0	TO_CACHE:         58

LLC Dense regions hint to LLC: 0

RAW hits: 2185193
Loads Generated: 49539227
Loads sent to L1D: 47354032
Stores Generated: 28475376
Stores sent to L1D: 28475378
Major fault: 0 Minor fault: 2050
Allocated PAGES: 2050
ucb ended
-----------------------------------------------------------------------------------------------------------------------------------------------------------------------------------------------------
Offsets elements: -1 -50395 50395 -99637 1 21538 17527 10546175 -10485606 -2200619015528 2200618937431 78099 -78094 -2200619028653 2200619106747 -2 3 21547 -121187 99637 -50420 -27671 26303 1368 -49220 21554 78085 10483691 -2200629499601 2200629501628 -10585359 99640 -78099 10563818 -2200629501243 2200629501243 -5 -10585354 10583332 -2200629468806 2200629470833 -10585358 2 10586208 -10586208 39067 -39066 21536 10563702 -10481419 -103821 103819 10479506 2200618989300 2200629469107 -11592681 1112874 -2200629499798 2200619020292 -2200618989300 2200629468806 -10583326 -2200618916572 2200629500201 -10479809 -2200619020292 614 2200629501206 -10585350 10585355 -2200629501206 5 10585354 -10485715 -99640 99641 -78098 -21545 -10485712 -2200619015531 2200619015529 78100 -78088 78090 241 2200618915646 21543 78098 -50396 50394 -2200619015288 2200619015289 -78085 -31760 10518319 -10486558 -50419 50420 -18636 -24 50419 10486563 -10486562 -31719 -20348 52067 -49228 47577 4 -47580 99644 11245 -42949 -72465736558 72465668612 47581 -47582 99645 -31751 31749 -1887 -48531 50418 -1888 1886 -78086 27666 18698 -20336 52057 -62584 -48310 47591 52055 -67947 47593 -47593 99650 -2200618915862 2200618866632 -2200618915680 -83977 2200619099307 18659 -10486559 -50418 50417 48530 -76198 -2200618964879 2200618915645 -2200618866640 3578956 2200615408850 -121164 121162 -71936 71943 -21525 -78084 46396 31689 11243 -11243 21517 -121170 99651 -99651 121164 10462178 -10462176 -21514 21531 -21531 21532 -71951 71934 -2200619036809 2200619036828 -121186 -21516 21514 -21515 21524 -23413 -2200618989746 2200618989746 -76197 46342 31743 21516 15 -71956 71951 -21533 21533 -71950 71955 -71955 121190 -3 -21534 -21539 21537 -21537 21519 -21483 21497 -2200619035029 2200618913839 121189 -2200619037637 2200619037649 -6 -7 -12 -2200619037625 2200619016142 21493 121194 -121191 121193 -21538 -2200619003887 2200618882695 99654 71952 -121188 21528 -71948 -2200618964843 -845 2200619037643 -20 21498 -21498 21483 -99691 99690 21506 -21505 21502 -21502 21500 -21500 -99689 99689 -99693 121192 -121190 -99690 21478 -21476 -2200618991630 2200619013108 -21480 -99695 99697 -50400 -3744089754 3744089754 50401 -3744140213 3739760467 14865567 -10585519 99695 -2200619015575 2200614635836 -3739760429 3739760429 14865554 -10585516 121197 -21 17 -2200619037642 2200619037642 -121193 -2200618915643 -810 -121195 -15 -23406 -2200619097604 2200618999835 7 -121192 121195 -121194 -10 -2200619036790 2200618915605 121186 -2200619036791 2200619036797 -2200619036797 2200618915602 121196 121185 -17 12 -121184 -121189 121187 2200619036791 -121185 121191 -23 -53262 -2200618983513 2200619036798 -121196 -2200618916449 2200619037644 -2200619036833 2200619036817 -121178 11 -2200619037648 2200618965688 -49234 99653 -97768 99655 21539 -18 21515 -121171 121171 -16 -21512 -2200618991593 -21532 21530 -21529 71930 -21535 9 2200619037637 6 -21536 21534 -2200619036813 2200618915641 21540 19 18 8 -72866 72863 -121169 -4 -8 -12685467 12564300 121183 -13 -23421 -2200619097603 2200619121022 -9 2200618915607 121184 2200619037636 -121183 121166 -121165 67892 -67890 -2200618916466 2200618916469 10585350 10585233 -10585236 103824 10481516 -10585338 10583329 -103822 103820 -103819 99622 21571 -2200619037667 2200619037665 121169 -21548 -31754 -72465736505 72465668638 21553 121198 -2200619036862 2200619036856 10 -2200619037665 -2200619036863 2200619036855 -2200619037674 2200619037655 -12685495 12564319 121167 -17360 -103807 121168 -2200619013136 2200619013141 2200618885493 103807 97730 -12684626 22568 -22568 12586898 -12564321 12662049 -1123454 1025725 6099 -103826 -12564331 12564332 103796 -103792 -288223780680062746 -4398046435840 252 288228178737081905 -10479781 -2200619138087 2200619138112 -1082251 1076146 -97720 97720 6077 -6078 -97718 -12564336 -2200606344709 2200619006764 -12684609 12586887 -12564329 12564328 97723 -1123446 1025726 -2200619097662 2200619097663 -12662057 8286876 -8286877 12564342 2200618999941 97721 -97724 -12564337 12564338 -2200618999684 2200606435346 12685466 -2200619013106 2200619013109 -121136 103806 17330 -17330 -103806 10583312 2200618885494 121133 14 21 16 -121154 99618 -99617 49196 99623 -49221 109524 -109524 121150 2200618916486 121155 -21518 4186 -4184 21518 -2200619013105 -121138 -99622 -49226 99621 -99623 121134 -2200619036827 2200619036814 -121158 121135 17331 2200619013111 -10583312 -2200618885494 2200618885495 22549 12564340 -12586889 12586889 12564330 97722 1129553 -4398046435838 -2200629617867 2200619138086 25 -978429 12662055 -2200619006764 2200618909043 -12662060 12662060 -12662061 12564337 -2200618999683 10583313 121139 -14 20 -121159 22 121141 -121137 121129 2200618989748 2200619097604 -76204 -21530 121151 121142 -121141 121136 -2200619013109 2200619013124 -25 -53261 -67871 121153 -121153 121137 -2200619036818 2200619036811 -2200619013104 -23942 -14865554 -10485822 -4379732 4280073 100443 -100442 99658 -99661 -2200618873381 2200618873381 -4280083 -14865567 -10536247 -4329320 4329352 -49268 -3744040553 3744040553 -4280086 4280087 49259 50403 -99659 99661 2200618991629 -99660 -21501 21481 -121157 21475 2200619013127 -19 -2200619036812 2200619036832 -2200618916486 2200618916489 -121151 -288228178726497928 288228178726497904 21503 21482 -71883 71883 -17300 -3744144337 3744144337 -103842 103839 -103839 -2200618915914 2200619037046 -17293 -2200618995812 -21479 -288228178726497906 288228178726497903 99656 21480 -121135 99657 4182 -4182 17318 -21503 -2200619015335 2200619036816 2200619036781 -121146 -2200618915671 2200618915672 121143 -99663 121160 21501 -21482 -2200619015334 -121143 -2200619013532 2200618913870 -2200618916479 2200619037640 -21497 99664 -50401 50400 -99665 99665 99666 -21499 21495 -21478 21479 -21477 -21485 13 -2200619036831 2200619036831 -2200619120876 2200619120871 -11 -21472 -99669 21491 -21490 -2200619037643 2200619036793 -2200619037640 2200618916480 121157 -21491 21494 -21493 21474 -21474 -31799 -10486520 -21492 21490 2200619120860 -23405 -67886 99669 2200619099533 21484 -76196 99611 -53270 31791 -50428 24 21473 -49244 67910 31760 -1928 -50178 52105 -99673 49245 47564 52103 -49243 99670 -2200619015483 2200619015483 -2200619015321 2200619015321 -50427 50427 -99677 -2200618915814 2200618915811 3487 -2200618919278 2200618915793 99674 18683 -18683 -2200619049013 2200618999763 99678 -99674 99675 -99675 -2200618915646 2200619015320 -99679 49251 -49249 -2200618915792 2200619015468 49252 -2200618915817 2200618915816 -2200618915813 2200618927625 -2200618928282 2200619027351 -110877 110877 110876 -110876 110878 -110881 110881 -2200619026672 -2200618915794 2200619026673 -11205 11202 -110884 103826 -54572 61633 -2200619110645 2200619049012 -61633 11205 61631 -48302 110884 -110885 110885 -49250 110882 -110882 110883 67935 42948 -110883 67934 42949 42945 -7058 -10583332 -2200618885474 2200618996360 -2200619027352 2200619027352 -51379 -48303 47568 -47568 -1927 1927 -31798 29870 10488449 10486520 -10486521 -20340 52101 48293 -48292 47570 52099 -110879 67929 -67928 47572 -47572 99671 23401 46335 29861 1928 107858 -76206 -2200619021400 2200619099534 -50404 -1926 -1930 6074 -4144 27706 -2200618941168 2200618435334 557026 -767 763 -765 -2200619016145 2200619037625 -20713 -764 765 -766 -50402 50404 4145 -54548 -27730 78132 -78128 10561778 -10561778 -21549 39064 60584 -78104 17522 10544262 1913 -10485565 -78139 27735 -78135 2200619106788 -99678 -50403 -99676 -10485566 -2200619015568 78139 -78134 2200619106787 21477 99677 -27703 47852 -26298 78125 10483651 99680 2200629501238 -2022 10586209 -10547141 -39065 10585241 -10563702 82283 301 -2200629469107 2200617876426 -10479506 30992 -2200629499898 -10585360 99681 -78138 10563810 -10585355 -2200618915888 2200619015569 78140 -78130 -2200618937441 242 2200618915647 -2200619015328 2200618964926 -27722 31800 10486519 -10486519 10486518 18628 -18628 10536926 -10486522 -31759 52107 -99688 49260 -49259 99684 -31744 -110896 -72465668613 72465668615 99685 -31791 31789 50426 -1929 76198 -48500 18666 52097 110893 -63302 718 -716 52095 -110894 110894 -110893 67944 -20351 -49262 -2200618866632 2200618866631 2200619099347 -78125 27698 18627 -10536946 50425 -50426 48500 1929 -27698 -21568 -2200618915645 -2200618866639 3605617 2200615382219 49262 71941 -21507 89328 -42932 31729 21507 -121200 10462148 -10462146 -21504 21521 -21521 21522 -71949 71932 -2200619036858 2200618915642 21504 -23443 -2200618989747 -97763 21567 -31783 31784 -71954 71949 -21523 -50425 71953 -71953 -21524 21527 -21527 21523 -21553 -2200619013492 121219 2200619037673 -2200619037655 2200619016102 21563 -121217 121224 -121221 -21528 -2200618982389 2200618982389 -99694 121218 -21522 21526 -121218 99696 71946 -2200619037666 -2200619036828 2200619036830 21568 -121203 21576 -21575 21572 -21572 21570 -21570 -99649 99649 -99653 121222 -121220 -99650 121203 21548 -21546 21551 -2200619013138 2200618991588 -99655 -50392 -3744089722 3744089722 50393 -3744140114 -59 -3739760467 3744040515 10585518 -10585518 -2200619015535 121227 -2200619037672 2200619037672 -121223 -121225 121225 121223 -23436 -121224 121230 -121215 121215 -2200618915605 2200618915606 121216 -2200618915602 2200619036826 -121214 -121222 -121219 -121227 121217 -2200618915606 2200619036804 23 -53315 -121226 2200619037674 2200619036847 -121208 -2200619037678 2200618965720 -97767 21529 21505 -21506 -121198 -2200618891936 2200618991632 -21519 -21520 21525 -71925 2200619037667 -21526 -2200619036843 -22 -121199 48318 -48317 121201 12685503 -23449 23449 -2200619121051 84230 121214 2200619037666 -121213 67890 10586207 -10586206 10585356 10585358 -10585351 10585235 -10481411 -2010 -103820 2200619037635 -121156 121138 -31794 72465768299 -2200619037635 -121161 121163 2200619036825 -2200619037644 2200619037629 -121142 -12564328 17328 12662051 -97721 -1025724 1123446 6107 -12668167 12564341 -103791 1076154 -97728 97728 6069 -6070 -97726 -12564326 -2200606344719 2200619006772 12586896 -12564319 97731 -2200619097670 2200619097671 -97729 12668127 -4381261 4375191 97729 -97732 -12564327 -2200606435356 2200619120842 2200619013139 -99657 49228 -49252 99663 -49253 -109525 -121181 2200618916487 -21508 4146 21508 -2200618891971 -49258 99662 -2200619036857 2200619036844 103805 17360 -121166 -2200619013139 1025727 -103825 978429 -103796 97726 -12662052 12662053 -2200619006772 -12662058 12662058 -2200619097671 2200619097673 -12668122 8286866 2200618999942 2200618999683 12685486 2200618995778 -121167 121179 -2200618989748 2200618913542 2200619121052 121172 121174 -2200619013135 2200619013142 -53298 53298 -2200619036841 23707 -10585481 10585481 -10585480 824 -100445 2200614593298 4329288 10536279 -10585483 49267 -49267 -4379709 4379706 -2200618991589 2200618891969 -21571 -2200619037677 2200619016105 21550 -2200619013157 2200619013158 -2200619036855 2200619036859 -2200619037670 99616 -99620 21573 99613 99615 21552 -71945 71945 3744040495 -17323 -2200619019753 2200619037079 2200618991589 -121162 -2200618891973 2200618991590 4222 -4222 17348 -21573 -99611 -2200619036846 2200619036841 -121176 -2200618915636 2200619036809 -21552 -2200619015294 2200618915671 2200619037670 -21567 99624 50397 -99625 99625 49233 -49232 99626 21564 -21569 21549 -21550 -21544 99627 -2200619120906 2200619120890 -99629 21561 -21560 -2200619037673 -2200619036821 2200619036823 -2200618916480 -21563 53319 10465000 -2200629585906 2200619120901 -21555 21544 99629 1889 -2200619121047 23445 71938 -53304 53299 -49212 31720 52065 21545 -99633 49213 52063 -99631 49211 -2200619015443 162 2200619015280 2200618919299 96149 -2200619015427 2200619015428 18715 -2200619067696 99638 -99634 99635 -2200619015281 -99639 49219 -49217 2200619015429 -99638 2200618933815 -2200618934472 2200618916473 -110878 -2200619026671 -11245 11242 -54604 61665 -2200619110644 2200619048979 -61665 61663 -110886 48302 -48299 -49218 49218 -67935 -99642 48300 -48301 110879 1887 -31758 31759 -1889 1888 10486561 -10518281 52061 52059 99631 23432 -23442 -2200619099492 76196 -29863 -2200618959885 2200619099494 27674 -2200618941136 2200618991553 -556221 -2200618459886 -577767 -805 4185 -54580 78092 -1886 10583327 -10583328 -17522 78104 10483680 -10485605 50396 -78095 78095 -2200619106748 -49242 103821 -78100 -78090 2200618964894 -27690 10486559 10486558 18660 -18660 10536958 -99648 -49227 -47579 -31704 -27666 46364 -49230 -50417 48532 121165 21513 99652 2200618913550 -2200618982349 2200618982349 -99654 71948 -2200619037636 -2200619036798 2200619036800 -121173 121173 -2200619013108 2200618991628 -3744140154 -2200618915641 121200 2200619036796 -121197 -2200619036774 2200618983512 21542 -71957 -99656 -2200618991592 2200618991591 21535 -71927 71936 48306 -48305 12685483 -23428 23419 -2200619121022 2200619121021 -10586207 -10585357 -99621 72465789812 2200619036862 2200619037659 -121172 -12564318 12564320 17358 1123454 -12668157 12564331 12564329 12668137 4375183 -97725 -12564338 -2200606435346 2200619120812 109525 -109526 121159 121156 -99619 2200618991592 121148 -97722 -12586886 -22549 -2200619097663 2200619097665 12668132 -12668138 -12662063 -121140 -121134 -121132 
Potential of Offsets elements: 2465.12 28.1305 28.1305 29.1305 2127.72 843.13 28.1305 28.1305 28.1305 42.1305 28.1305 28.1305 129.13 28.1305 28.1305 2300.13 2012.13 67.1305 497.13 605.13 40.1305 28.1305 29.1305 28.1305 30.1305 320.13 394.13 40.1305 28.1305 28.1305 73.1305 28.1305 28.1305 36.1305 28.1305 28.1305 1309.13 96.1305 34.1305 32.1305 68.1305 36.1305 1664.13 28.1305 53.1305 28.1305 28.1305 91.1305 28.1305 28.1305 28.1305 108.13 46.1305 67.1305 28.1305 29.1305 28.1305 33.1305 78.1305 32.1305 44.1305 29.1305 29.1305 28.1305 28.1305 98.1305 28.1305 28.1305 28.1305 148.13 28.1305 1481.13 77.1305 49.1305 28.1305 46.1305 282.13 74.1305 28.1305 28.1305 34.1305 28.1305 41.1305 112.13 28.1305 28.1305 40.1305 30.1305 28.1305 28.1305 28.1305 113.13 28.1305 36.1305 36.1305 29.1305 72.1305 637.13 31.1305 360.13 28.1305 28.1305 32.1305 28.1305 28.1305 40.1305 114.13 28.1305 647.13 30.1305 42.1305 751.13 46.1305 28.1305 28.1305 38.1305 42.1305 55.1305 49.1305 84.1305 54.1305 29.1305 28.1305 28.1305 28.1305 50.1305 190.13 28.1305 28.1305 28.1305 32.1305 29.1305 28.1305 28.1305 33.1305 28.1305 28.1305 70.1305 28.1305 28.1305 28.1305 29.1305 28.1305 33.1305 30.1305 28.1305 62.1305 172.13 49.1305 35.1305 42.1305 34.1305 28.1305 28.1305 182.13 107.13 207.13 28.1305 30.1305 28.1305 28.1305 28.1305 112.13 28.1305 144.13 354.13 402.13 187.13 515.13 78.1305 32.1305 113.13 53.1305 177.13 81.1305 28.1305 28.1305 33.1305 47.1305 28.1305 40.1305 32.1305 31.1305 28.1305 36.1305 30.1305 33.1305 68.1305 28.1305 34.1305 28.1305 283.13 90.1305 28.1305 73.1305 166.13 79.1305 48.1305 260.13 414.13 2129.13 106.13 28.1305 40.1305 40.1305 222.13 38.1305 312.13 28.1305 62.1305 306.13 28.1305 28.1305 1061.13 1260.13 351.13 36.1305 52.1305 28.1305 44.1305 1182.13 28.1305 42.1305 28.1305 28.1305 88.1305 28.1305 987.13 55.1305 28.1305 28.1305 49.1305 28.1305 112.13 268.13 28.1305 817.13 375.13 142.13 137.13 28.1305 227.13 28.1305 551.13 28.1305 169.13 28.1305 28.1305 180.13 556.13 28.1305 198.13 28.1305 39.1305 28.1305 36.1305 151.13 28.1305 108.13 34.1305 28.1305 28.1305 28.1305 31.1305 34.1305 28.1305 748.13 28.1305 32.1305 28.1305 30.1305 32.1305 28.1305 179.13 537.13 385.13 28.1305 108.13 157.13 49.1305 30.1305 407.13 326.13 28.1305 32.1305 28.1305 931.13 65.1305 504.13 44.1305 468.13 29.1305 49.1305 28.1305 30.1305 32.1305 28.1305 28.1305 100.13 485.13 382.13 196.13 28.1305 299.13 515.13 28.1305 583.13 28.1305 119.13 30.1305 28.1305 28.1305 40.1305 266.13 37.1305 48.1305 28.1305 414.13 520.13 28.1305 193.13 41.1305 430.13 75.1305 222.13 28.1305 77.1305 504.13 246.13 156.13 197.13 56.1305 31.1305 79.1305 329.13 162.13 28.1305 102.13 635.13 28.1305 1115.13 801.13 133.13 71.1305 49.1305 28.1305 441.13 557.13 311.13 33.1305 28.1305 277.13 1315.13 1049.13 28.1305 28.1305 399.13 293.13 111.13 28.1305 32.1305 743.13 28.1305 601.13 38.1305 28.1305 40.1305 188.13 28.1305 42.1305 28.1305 38.1305 28.1305 28.1305 29.1305 41.1305 28.1305 28.1305 40.1305 28.1305 48.1305 36.1305 66.1305 260.13 28.1305 55.1305 28.1305 150.13 42.1305 29.1305 28.1305 150.13 203.13 28.1305 28.1305 330.13 28.1305 70.1305 28.1305 98.1305 28.1305 28.1305 28.1305 550.13 41.1305 28.1305 570.13 38.1305 28.1305 28.1305 112.13 147.13 28.1305 28.1305 37.1305 28.1305 28.1305 38.1305 34.1305 28.1305 28.1305 100.13 52.1305 28.1305 28.1305 88.1305 28.1305 28.1305 29.1305 29.1305 28.1305 28.1305 30.1305 28.1305 28.1305 77.1305 63.1305 28.1305 28.1305 56.1305 28.1305 28.1305 35.1305 40.1305 28.1305 28.1305 122.13 30.1305 28.1305 28.1305 72.1305 28.1305 28.1305 28.1305 28.1305 28.1305 28.1305 287.13 28.1305 28.1305 50.1305 41.1305 28.1305 36.1305 53.1305 70.1305 28.1305 58.1305 56.1305 42.1305 28.1305 92.1305 38.1305 28.1305 634.13 223.13 446.13 124.13 116.13 102.13 28.1305 28.1305 36.1305 28.1305 28.1305 420.13 88.1305 250.13 173.13 28.1305 66.1305 103.13 34.1305 501.13 58.1305 28.1305 28.1305 623.13 28.1305 99.1305 54.1305 322.13 28.1305 45.1305 28.1305 28.1305 28.1305 73.1305 28.1305 28.1305 42.1305 64.1305 28.1305 28.1305 34.1305 28.1305 28.1305 28.1305 167.13 28.1305 28.1305 33.1305 32.1305 28.1305 28.1305 59.1305 28.1305 28.1305 40.1305 713.13 143.13 603.13 505.13 269.13 28.1305 116.13 480.13 38.1305 32.1305 28.1305 50.1305 100.13 156.13 362.13 130.13 28.1305 30.1305 249.13 32.1305 31.1305 433.13 369.13 28.1305 30.1305 40.1305 29.1305 28.1305 28.1305 64.1305 28.1305 31.1305 33.1305 57.1305 735.13 28.1305 34.1305 28.1305 34.1305 34.1305 28.1305 28.1305 28.1305 34.1305 28.1305 28.1305 46.1305 46.1305 35.1305 28.1305 533.13 53.1305 28.1305 211.13 28.1305 28.1305 358.13 113.13 32.1305 386.13 42.1305 29.1305 28.1305 28.1305 458.13 34.1305 28.1305 101.13 28.1305 28.1305 32.1305 30.1305 43.1305 28.1305 45.1305 83.1305 28.1305 28.1305 28.1305 96.1305 28.1305 89.1305 254.13 40.1305 614.13 28.1305 499.13 31.1305 28.1305 28.1305 28.1305 104.13 28.1305 86.1305 29.1305 28.1305 43.1305 64.1305 33.1305 106.13 298.13 164.13 28.1305 36.1305 28.1305 28.1305 34.1305 28.1305 70.1305 28.1305 134.13 28.1305 28.1305 61.1305 41.1305 498.13 28.1305 90.1305 28.1305 28.1305 104.13 28.1305 506.13 34.1305 54.1305 28.1305 28.1305 317.13 28.1305 201.13 28.1305 105.13 28.1305 28.1305 84.1305 64.1305 584.13 147.13 29.1305 48.1305 28.1305 28.1305 28.1305 28.1305 464.13 28.1305 28.1305 28.1305 48.1305 74.1305 29.1305 370.13 56.1305 28.1305 28.1305 28.1305 28.1305 101.13 336.13 41.1305 31.1305 28.1305 28.1305 36.1305 28.1305 489.13 150.13 28.1305 28.1305 92.1305 28.1305 28.1305 62.1305 28.1305 28.1305 34.1305 28.1305 104.13 28.1305 28.1305 37.1305 28.1305 28.1305 28.1305 28.1305 28.1305 28.1305 54.1305 76.1305 59.1305 28.1305 36.1305 59.1305 28.1305 852.13 42.1305 271.13 28.1305 28.1305 41.1305 28.1305 72.1305 28.1305 28.1305 28.1305 73.1305 30.1305 28.1305 230.13 50.1305 28.1305 28.1305 359.13 28.1305 28.1305 46.1305 1030.13 28.1305 28.1305 52.1305 28.1305 28.1305 28.1305 52.1305 28.1305 28.1305 28.1305 31.1305 28.1305 28.1305 241.13 64.1305 28.1305 276.13 57.1305 28.1305 28.1305 413.13 66.1305 28.1305 28.1305 61.1305 32.1305 28.1305 46.1305 68.1305 28.1305 28.1305 44.1305 28.1305 28.1305 348.13 268.13 46.1305 28.1305 48.1305 28.1305 28.1305 28.1305 118.13 29.1305 28.1305 98.1305 30.1305 28.1305 31.1305 69.1305 28.1305 28.1305 28.1305 52.1305 28.1305 35.1305 624.13 29.1305 29.1305 31.1305 28.1305 83.1305 64.1305 448.13 38.1305 112.13 28.1305 28.1305 28.1305 28.1305 104.13 28.1305 28.1305 28.1305 28.1305 28.1305 28.1305 111.13 28.1305 81.1305 28.1305 28.1305 44.1305 29.1305 28.1305 102.13 28.1305 28.1305 437.13 28.1305 28.1305 28.1305 40.1305 28.1305 28.1305 28.1305 29.1305 28.1305 29.1305 108.13 90.1305 62.1305 28.1305 40.1305 28.1305 28.1305 272.13 28.1305 57.1305 28.1305 52.1305 28.1305 28.1305 204.13 59.1305 50.1305 28.1305 88.1305 30.1305 28.1305 46.1305 30.1305 28.1305 28.1305 37.1305 28.1305 28.1305 31.1305 64.1305 28.1305 28.1305 28.1305 28.1305 28.1305 28.1305 44.1305 28.1305 28.1305 28.1305 30.1305 28.1305 45.1305 122.13 28.1305 30.1305 28.1305 28.1305 28.1305 39.1305 115.13 46.1305 28.1305 28.1305 136.13 28.1305 28.1305 49.1305 154.13 28.1305 51.1305 90.1305 30.1305 28.1305 28.1305 58.1305 28.1305 28.1305 28.1305 28.1305 29.1305 56.1305 88.1305 28.1305 28.1305 36.1305 28.1305 28.1305 28.1305 68.1305 28.1305 28.1305 28.1305 31.1305 28.1305 28.1305 102.13 28.1305 30.1305 28.1305 28.1305 28.1305 83.1305 172.13 94.1305 29.1305 591.13 42.1305 28.1305 28.1305 28.1305 130.13 102.13 28.1305 36.1305 28.1305 28.1305 32.1305 314.13 58.1305 28.1305 32.1305 101.13 96.1305 38.1305 190.13 166.13 54.1305 53.1305 122.13 28.1305 36.1305 62.1305 28.1305 28.1305 28.1305 208.13 114.13 28.1305 222.13 115.13 32.1305 28.1305 58.1305 39.1305 39.1305 122.13 56.1305 28.1305 70.1305 36.1305 55.1305 28.1305 28.1305 819.13 28.1305 28.1305 28.1305 28.1305 28.1305 28.1305 574.13 100.13 28.1305 28.1305 28.1305 28.1305 33.1305 59.1305 28.1305 64.1305 28.1305 30.1305 28.1305 28.1305 377.13 28.1305 28.1305 468.13 566.13 28.1305 28.1305 178.13 329.13 532.13 257.13 28.1305 42.1305 28.1305 61.1305 40.1305 34.1305 28.1305 37.1305 28.1305 37.1305 28.1305 31.1305 28.1305 28.1305 30.1305 48.1305 28.1305 28.1305 770.13 28.1305 28.1305 28.1305 46.1305 28.1305 28.1305 785.13 64.1305 28.1305 28.1305 141.13 28.1305 37.1305 438.13 75.1305 28.1305 28.1305 158.13 28.1305 44.1305 242.13 40.1305 28.1305 28.1305 37.1305 28.1305 28.1305 182.13 96.1305 81.1305 28.1305 79.1305 97.1305 28.1305 28.1305 207.13 69.1305 38.1305 46.1305 60.1305 41.1305 32.1305 672.13 28.1305 28.1305 30.1305 143.13 28.1305 28.1305 168.13 28.1305 28.1305 29.1305 48.1305 28.1305 42.1305 38.1305 30.1305 28.1305 62.1305 37.1305 28.1305 28.1305 28.1305 65.1305 28.1305 28.1305 52.1305 28.1305 28.1305 28.1305 289.13 453.13 32.1305 178.13 46.1305 297.13 28.1305 58.1305 28.1305 28.1305 28.1305 58.1305 38.1305 28.1305 28.1305 58.1305 28.1305 28.1305 161.13 28.1305 28.1305 28.1305 123.13 28.1305 28.1305 43.1305 42.1305 28.1305 28.1305 72.1305 64.1305 28.1305 39.1305 28.1305 28.1305 28.1305 125.13 32.1305 28.1305 29.1305 134.13 87.1305 112.13 204.13 29.1305 28.1305 368.13 64.1305 28.1305 276.13 124.13 178.13 28.1305 56.1305 32.1305 28.1305 28.1305 39.1305 724.13 30.1305 28.1305 64.1305 33.1305 28.1305 28.1305 81.1305 28.1305 28.1305 41.1305 30.1305 28.1305 28.1305 116.13 28.1305 28.1305 31.1305 46.1305 28.1305 28.1305 322.13 32.1305 36.1305 34.1305 28.1305 195.13 35.1305 30.1305 43.1305 34.1305 29.1305 30.1305 28.1305 28.1305 28.1305 41.1305 50.1305 28.1305 28.1305 28.1305 28.1305 68.1305 33.1305 28.1305 28.1305 29.1305 81.1305 28.1305 42.1305 49.1305 506.13 28.1305 40.1305 28.1305 28.1305 112.13 106.13 381.13 69.1305 147.13 165.13 110.13 63.1305 84.1305 52.1305 28.1305 28.1305 28.1305 28.1305 28.1305 61.1305 143.13 28.1305 28.1305 43.1305 28.1305 30.1305 30.1305 67.1305 90.1305 51.1305 48.1305 50.1305 32.1305 54.1305 40.1305 365.13 60.1305 75.1305 30.1305 29.1305 40.1305 168.13 677.13 86.1305 64.1305 28.1305 97.1305 51.1305 28.1305 36.1305 28.1305 82.1305 28.1305 34.1305 248.13 28.1305 57.1305 28.1305 54.1305 28.1305 28.1305 28.1305 28.1305 388.13 165.13 86.1305 48.1305 28.1305 31.1305 157.13 29.1305 32.1305 54.1305 28.1305 28.1305 87.1305 28.1305 32.1305 116.13 28.1305 317.13 28.1305 28.1305 28.1305 28.1305 69.1305 28.1305 28.1305 28.1305 29.1305 53.1305 28.1305 791.13 28.1305 79.1305 29.1305 28.1305 28.1305 36.1305 31.1305 28.1305 48.1305 28.1305 58.1305 32.1305 28.1305 28.1305 303.13 28.1305 28.1305 28.1305 28.1305 28.1305 28.1305 60.1305 42.1305 285.13 66.1305 135.13 30.1305 28.1305 430.13 138.13 31.1305 44.1305 28.1305 30.1305 28.1305 30.1305 28.1305 28.1305 39.1305 96.1305 32.1305 28.1305 58.1305 31.1305 28.1305 28.1305 28.1305 28.1305 28.1305 28.1305 35.1305 28.1305 28.1305 28.1305 28.1305 28.1305 187.13 88.1305 34.1305 28.1305 32.1305 28.1305 28.1305 128.13 112.13 28.1305 28.1305 49.1305 52.1305 28.1305 51.1305 44.1305 36.1305 28.1305 28.1305 28.1305 28.1305 28.1305 99.1305 104.13 28.1305 28.1305 28.1305 28.1305 133.13 228.13 112.13 251.13 28.1305 39.1305 29.1305 28.1305 28.1305 577.13 175.13 53.1305 32.1305 28.1305 347.13 205.13 30.1305 28.1305 97.1305 46.1305 343.13 28.1305 212.13 28.1305 30.1305 33.1305 28.1305 196.13 28.1305 107.13 104.13 54.1305 149.13 28.1305 29.1305 64.1305 126.13 28.1305 50.1305 28.1305 28.1305 60.1305 31.1305 28.1305 28.1305 28.1305 224.13 28.1305 28.1305 74.1305 35.1305 28.1305 28.1305 105.13 32.1305 28.1305 28.1305 60.1305 28.1305 28.1305 28.1305 28.1305 102.13 28.1305 72.1305 123.13 75.1305 120.13 62.1305 28.1305 28.1305 28.1305 28.1305 28.1305 28.1305 389.13 109.13 28.1305 
rewards of Offsets elements: 2465 0 0 1 2127 815 0 0 0 14 0 0 101 0 0 2272 1984 39 469 577 12 0 1 0 2 292 366 12 0 0 45 0 0 8 0 0 1281 68 6 4 40 8 1636 0 25 0 0 63 0 0 0 80 18 39 0 1 0 5 50 4 16 1 1 0 0 70 0 0 0 120 0 1453 49 21 0 18 254 46 0 0 6 0 13 84 0 0 12 2 0 0 0 85 0 8 8 1 44 609 3 332 0 0 4 0 0 12 86 0 619 2 14 723 18 0 0 10 14 27 21 56 26 1 0 0 0 22 162 0 0 0 4 1 0 0 5 0 0 42 0 0 0 1 0 5 2 0 34 144 21 7 14 6 0 0 154 79 179 0 2 0 0 0 84 0 116 326 374 159 487 50 4 85 25 149 53 0 0 5 19 0 12 4 3 0 8 2 5 40 0 6 0 255 62 0 45 138 51 20 232 386 2101 78 0 12 12 194 10 284 0 34 278 0 0 1033 1232 323 8 24 0 16 1154 0 14 0 0 60 0 959 27 0 0 21 0 84 240 0 789 347 114 109 0 199 0 523 0 141 0 0 152 528 0 170 0 11 0 8 123 0 80 6 0 0 0 3 6 0 720 0 4 0 2 4 0 151 509 357 0 80 129 21 2 379 298 0 4 0 903 37 476 16 440 1 21 0 2 4 0 0 72 457 354 168 0 271 487 0 555 0 91 2 0 0 12 238 9 20 0 386 492 0 165 13 402 47 194 0 49 476 218 128 169 28 3 51 301 134 0 74 607 0 1087 773 105 43 21 0 413 529 283 5 0 249 1287 1021 0 0 371 265 83 0 4 715 0 573 10 0 12 160 0 14 0 10 0 0 1 13 0 0 12 0 20 8 38 232 0 27 0 122 14 1 0 122 175 0 0 302 0 42 0 70 0 0 0 522 13 0 542 10 0 0 84 119 0 0 9 0 0 10 6 0 0 72 24 0 0 60 0 0 1 1 0 0 2 0 0 49 35 0 0 28 0 0 7 12 0 0 94 2 0 0 44 0 0 0 0 0 0 259 0 0 22 13 0 8 25 42 0 30 28 14 0 64 10 0 606 195 418 96 88 74 0 0 8 0 0 392 60 222 145 0 38 75 6 473 30 0 0 595 0 71 26 294 0 17 0 0 0 45 0 0 14 36 0 0 6 0 0 0 139 0 0 5 4 0 0 31 0 0 12 685 115 575 477 241 0 88 452 10 4 0 22 72 128 334 102 0 2 221 4 3 405 341 0 2 12 1 0 0 36 0 3 5 29 707 0 6 0 6 6 0 0 0 6 0 0 18 18 7 0 505 25 0 183 0 0 330 85 4 358 14 1 0 0 430 6 0 73 0 0 4 2 15 0 17 55 0 0 0 68 0 61 226 12 586 0 471 3 0 0 0 76 0 58 1 0 15 36 5 78 270 136 0 8 0 0 6 0 42 0 106 0 0 33 13 470 0 62 0 0 76 0 478 6 26 0 0 289 0 173 0 77 0 0 56 36 556 119 1 20 0 0 0 0 436 0 0 0 20 46 1 342 28 0 0 0 0 73 308 13 3 0 0 8 0 461 122 0 0 64 0 0 34 0 0 6 0 76 0 0 9 0 0 0 0 0 0 26 48 31 0 8 31 0 824 14 243 0 0 13 0 44 0 0 0 45 2 0 202 22 0 0 331 0 0 18 1002 0 0 24 0 0 0 24 0 0 0 3 0 0 213 36 0 248 29 0 0 385 38 0 0 33 4 0 18 40 0 0 16 0 0 320 240 18 0 20 0 0 0 90 1 0 70 2 0 3 41 0 0 0 24 0 7 596 1 1 3 0 55 36 420 10 84 0 0 0 0 76 0 0 0 0 0 0 83 0 53 0 0 16 1 0 74 0 0 409 0 0 0 12 0 0 0 1 0 1 80 62 34 0 12 0 0 244 0 29 0 24 0 0 176 31 22 0 60 2 0 18 2 0 0 9 0 0 3 36 0 0 0 0 0 0 16 0 0 0 2 0 17 94 0 2 0 0 0 11 87 18 0 0 108 0 0 21 126 0 23 62 2 0 0 30 0 0 0 0 1 28 60 0 0 8 0 0 0 40 0 0 0 3 0 0 74 0 2 0 0 0 55 144 66 1 563 14 0 0 0 102 74 0 8 0 0 4 286 30 0 4 73 68 10 162 138 26 25 94 0 8 34 0 0 0 180 86 0 194 87 4 0 30 11 11 94 28 0 42 8 27 0 0 791 0 0 0 0 0 0 546 72 0 0 0 0 5 31 0 36 0 2 0 0 349 0 0 440 538 0 0 150 301 504 229 0 14 0 33 12 6 0 9 0 9 0 3 0 0 2 20 0 0 742 0 0 0 18 0 0 757 36 0 0 113 0 9 410 47 0 0 130 0 16 214 12 0 0 9 0 0 154 68 53 0 51 69 0 0 179 41 10 18 32 13 4 644 0 0 2 115 0 0 140 0 0 1 20 0 14 10 2 0 34 9 0 0 0 37 0 0 24 0 0 0 261 425 4 150 18 269 0 30 0 0 0 30 10 0 0 30 0 0 133 0 0 0 95 0 0 15 14 0 0 44 36 0 11 0 0 0 97 4 0 1 106 59 84 176 1 0 340 36 0 248 96 150 0 28 4 0 0 11 696 2 0 36 5 0 0 53 0 0 13 2 0 0 88 0 0 3 18 0 0 294 4 8 6 0 167 7 2 15 6 1 2 0 0 0 13 22 0 0 0 0 40 5 0 0 1 53 0 14 21 478 0 12 0 0 84 78 353 41 119 137 82 35 56 24 0 0 0 0 0 33 115 0 0 15 0 2 2 39 62 23 20 22 4 26 12 337 32 47 2 1 12 140 649 58 36 0 69 23 0 8 0 54 0 6 220 0 29 0 26 0 0 0 0 360 137 58 20 0 3 129 1 4 26 0 0 59 0 4 88 0 289 0 0 0 0 41 0 0 0 1 25 0 763 0 51 1 0 0 8 3 0 20 0 30 4 0 0 275 0 0 0 0 0 0 32 14 257 38 107 2 0 402 110 3 16 0 2 0 2 0 0 11 68 4 0 30 3 0 0 0 0 0 0 7 0 0 0 0 0 159 60 6 0 4 0 0 100 84 0 0 21 24 0 23 16 8 0 0 0 0 0 71 76 0 0 0 0 105 200 84 223 0 11 1 0 0 549 147 25 4 0 319 177 2 0 69 18 315 0 184 0 2 5 0 168 0 79 76 26 121 0 1 36 98 0 22 0 0 32 3 0 0 0 196 0 0 46 7 0 0 77 4 0 0 32 0 0 0 0 74 0 44 95 47 92 34 0 0 0 0 0 0 361 81 0 Printing Sanity3
offset_index value1476
offset list size1476
reward size1476
potential size1476
-----------------------------------------------------------------------------------------------------------------------------------------------------------------------------------------------------

DRAM Statistics
 CHANNEL 0
 RQ ROW_BUFFER_HIT:      16323  ROW_BUFFER_MISS:      27731
 DBUS_CONGESTED:          6
 WQ ROW_BUFFER_HIT:       6462  ROW_BUFFER_MISS:      18315  FULL:          0

 AVG_CONGESTED_CYCLE: 5
 All warmup complete: 2
Channel 0 Bank busy for read cycles: 0
Channel 0 Bank busy for write cycles: 0
Channel 0
Rank 0
0banks busy for read cycles: 348375829
0banks busy for write cycles: 5888
1banks busy for read cycles: 1812623
1banks busy for write cycles: 944400
2banks busy for read cycles: 356679
2banks busy for write cycles: 332236
3banks busy for read cycles: 94842
3banks busy for write cycles: 161952
4banks busy for read cycles: 32348
4banks busy for write cycles: 67370
5banks busy for read cycles: 38871
5banks busy for write cycles: 30181
6banks busy for read cycles: 47026
6banks busy for write cycles: 24414
7banks busy for read cycles: 68018
7banks busy for write cycles: 45001
8banks busy for read cycles: 145495
8banks busy for write cycles: 220315

CPU 0 Branch Prediction Accuracy: 99.9274% MPKI: 0.113335 Average ROB Occupancy at Mispredict: 10.6106
Branch types
NOT_BRANCH: 168787543 84.3938%
BRANCH_DIRECT_JUMP: 1774351 0.887176%
BRANCH_INDIRECT: 11507662 5.75383%
BRANCH_CONDITIONAL: 9680226 4.84011%
BRANCH_DIRECT_CALL: 3347214 1.67361%
BRANCH_INDIRECT_CALL: 777882 0.388941%
BRANCH_RETURN: 4125097 2.06255%
BRANCH_OTHER: 0 0%

DRAM PAGES: 1048576
Allocated PAGES: 2050
