
*** ChampSim Multicore Out-of-Order Simulator ***

Warmup Instructions: 50000000
Simulation Instructions: 200000000
Number of CPUs: 1
LLC sets: 2048
LLC ways: 16
Off-chip DRAM Size: 4096 MB Channels: 1 Width: 64-bit Data Rate: 6400 MT/s
CPU 0 runs traces/spec2k17/server_016.champsimtrace.xz
.xz
BTB has LRU replacement policy
ITLB has LRU replacement policy
DTLB has LRU replacement policy
STLB has LRU replacement policy
L1I has LRU replacement policy
L1D has LRU replacement policy
Initialize SRRIP state for L2C
Initialize DRRIP state for LLC
Heartbeat CPU 0 instructions: 10000001 cycles: 2810006 heartbeat IPC: 3.55871 cumulative IPC: 3.55871 (Simulation time: 0 hr 0 min 36 sec) 
Heartbeat CPU 0 instructions: 20000001 cycles: 5613943 heartbeat IPC: 3.56641 cumulative IPC: 3.56256 (Simulation time: 0 hr 1 min 13 sec) 
Heartbeat CPU 0 instructions: 30000000 cycles: 8416478 heartbeat IPC: 3.5682 cumulative IPC: 3.56444 (Simulation time: 0 hr 1 min 51 sec) 
Heartbeat CPU 0 instructions: 40000000 cycles: 11520317 heartbeat IPC: 3.22182 cumulative IPC: 3.47213 (Simulation time: 0 hr 2 min 14 sec) 
Heartbeat CPU 0 instructions: 50000001 cycles: 14786791 heartbeat IPC: 3.06141 cumulative IPC: 3.3814 (Simulation time: 0 hr 2 min 31 sec) 

Warmup complete CPU 0 instructions: 50000001 cycles: 14786791 (Simulation time: 0 hr 2 min 31 sec) 

Offsets elements: 
Potential of Offsets elements: 
rewards of Offsets elements: 
Printing Sanity1
offset list size126
Offsets elements: 
Potential of Offsets elements: 
rewards of Offsets elements: 239 1133 9 18 72 105 72 30 245 18 27 0 39 1029 114 144 108 528 108 72 54 98 90 72 54 87 54 393 112 27 0 108 36 36 51 294 28 876 9 54 54 126 52 154 45 72 144 72 18 27 36 21 330 36 36 0 144 80 1060 766 108 72 72 90 104 120 30 110 114 72 72 78 42 156 30 96 81 0 72 18 43 24 63 36 36 36 18 60 54 70 36 18 771 36 60 0 10 30 983 1148 72 9 120 21 30 337 21 45 56 48 56 30 66 36 108 402 18 0 0 69 18 21 0 30 761 36 
Printing Sanity2
Heartbeat CPU 0 instructions: 60000001 cycles: 29224822 heartbeat IPC: 0.692615 cumulative IPC: 0.692615 (Simulation time: 0 hr 3 min 16 sec) 
Heartbeat CPU 0 instructions: 70000001 cycles: 58846643 heartbeat IPC: 0.337589 cumulative IPC: 0.453928 (Simulation time: 0 hr 4 min 20 sec) 
Heartbeat CPU 0 instructions: 80000000 cycles: 89391429 heartbeat IPC: 0.327388 cumulative IPC: 0.40212 (Simulation time: 0 hr 5 min 24 sec) 
Heartbeat CPU 0 instructions: 90000000 cycles: 118921084 heartbeat IPC: 0.338643 cumulative IPC: 0.384119 (Simulation time: 0 hr 6 min 29 sec) 
Heartbeat CPU 0 instructions: 100000000 cycles: 148929338 heartbeat IPC: 0.333242 cumulative IPC: 0.372738 (Simulation time: 0 hr 7 min 35 sec) 
*** Reached end of trace for Core: 0 Repeating trace: traces/spec2k17/server_016.champsimtrace.xz
Heartbeat CPU 0 instructions: 110000000 cycles: 178339193 heartbeat IPC: 0.340022 cumulative IPC: 0.366855 (Simulation time: 0 hr 8 min 39 sec) 
Heartbeat CPU 0 instructions: 120000003 cycles: 208373980 heartbeat IPC: 0.332947 cumulative IPC: 0.361594 (Simulation time: 0 hr 9 min 44 sec) 
Heartbeat CPU 0 instructions: 130000000 cycles: 238079897 heartbeat IPC: 0.336633 cumulative IPC: 0.358273 (Simulation time: 0 hr 10 min 50 sec) 
Heartbeat CPU 0 instructions: 140000000 cycles: 262354790 heartbeat IPC: 0.411948 cumulative IPC: 0.363536 (Simulation time: 0 hr 11 min 49 sec) 
Heartbeat CPU 0 instructions: 150000003 cycles: 276791946 heartbeat IPC: 0.692657 cumulative IPC: 0.381672 (Simulation time: 0 hr 12 min 32 sec) 
Heartbeat CPU 0 instructions: 160000001 cycles: 291229192 heartbeat IPC: 0.692653 cumulative IPC: 0.397913 (Simulation time: 0 hr 13 min 14 sec) 
Heartbeat CPU 0 instructions: 170000000 cycles: 316237222 heartbeat IPC: 0.399872 cumulative IPC: 0.398075 (Simulation time: 0 hr 14 min 13 sec) 
Heartbeat CPU 0 instructions: 180000003 cycles: 346529390 heartbeat IPC: 0.330118 cumulative IPC: 0.39187 (Simulation time: 0 hr 15 min 20 sec) 
Heartbeat CPU 0 instructions: 190000000 cycles: 376636887 heartbeat IPC: 0.332143 cumulative IPC: 0.386901 (Simulation time: 0 hr 16 min 21 sec) 
Heartbeat CPU 0 instructions: 200000000 cycles: 405943926 heartbeat IPC: 0.341215 cumulative IPC: 0.383478 (Simulation time: 0 hr 17 min 26 sec) 
*** Reached end of trace for Core: 0 Repeating trace: traces/spec2k17/server_016.champsimtrace.xz
Heartbeat CPU 0 instructions: 210000000 cycles: 435711732 heartbeat IPC: 0.335933 cumulative IPC: 0.380115 (Simulation time: 0 hr 18 min 28 sec) 
Heartbeat CPU 0 instructions: 220000000 cycles: 465524677 heartbeat IPC: 0.335425 cumulative IPC: 0.377159 (Simulation time: 0 hr 19 min 30 sec) 
Heartbeat CPU 0 instructions: 230000000 cycles: 495124236 heartbeat IPC: 0.337843 cumulative IPC: 0.374737 (Simulation time: 0 hr 20 min 34 sec) 
Heartbeat CPU 0 instructions: 240000000 cycles: 523905065 heartbeat IPC: 0.347454 cumulative IPC: 0.373194 (Simulation time: 0 hr 21 min 39 sec) 
Heartbeat CPU 0 instructions: 250000003 cycles: 538374137 heartbeat IPC: 0.69113 cumulative IPC: 0.38198 (Simulation time: 0 hr 22 min 25 sec) 
Finished CPU 0 instructions: 200000002 cycles: 523587346 cumulative IPC: 0.38198 (Simulation time: 0 hr 22 min 25 sec) 

ChampSim completed all CPUs

Region of Interest Statistics

CPU 0 cumulative IPC: 0.38198 instructions: 200000002 cycles: 523587346
ITLB TOTAL     ACCESS:   37651331  HIT:   36241123  MISS:    1410208  HIT %:    96.2546  MISS %:    3.74544   MPKI: 7.05104
ITLB LOAD TRANSLATION ACCESS:   37651331  HIT:   36241123  MISS:    1410208  HIT %:    96.2546  MISS %:    3.74544   MPKI: 7.05104
ITLB PREFETCH  REQUESTED:          0  ISSUED:          0  USEFUL:          0  USELESS:          0
ITLB USEFUL LOAD PREFETCHES:          0 PREFETCH ISSUED TO LOWER LEVEL:          0  ACCURACY: -nan
ITLB TIMELY PREFETCHES:          0 LATE PREFETCHES: 0 DROPPED PREFETCHES: 0
ITLB PREFETCHES SAME FILL-ORIGIN LEVEL: 0 DIFFERENT FILL-ORIGIN LEVEL: 0
ITLB AVERAGE MISS LATENCY: 9.05352 cycles
ITLB RQ	ACCESS:   42291783	FORWARD:          0	MERGED:    4300626	TO_CACHE:   37991157

DTLB TOTAL     ACCESS:   39329076  HIT:   37958218  MISS:    1370858  HIT %:    96.5144  MISS %:    3.48561   MPKI: 6.85429
DTLB LOAD TRANSLATION ACCESS:   39329076  HIT:   37958218  MISS:    1370858  HIT %:    96.5144  MISS %:    3.48561   MPKI: 6.85429
DTLB PREFETCH  REQUESTED:          0  ISSUED:          0  USEFUL:          0  USELESS:          0
DTLB USEFUL LOAD PREFETCHES:          0 PREFETCH ISSUED TO LOWER LEVEL:          0  ACCURACY: -nan
DTLB TIMELY PREFETCHES:          0 LATE PREFETCHES: 0 DROPPED PREFETCHES: 0
DTLB PREFETCHES SAME FILL-ORIGIN LEVEL: 0 DIFFERENT FILL-ORIGIN LEVEL: 0
DTLB AVERAGE MISS LATENCY: 9.28983 cycles
DTLB RQ	ACCESS:   50764626	FORWARD:          0	MERGED:   11383873	TO_CACHE:   39380753

STLB TOTAL     ACCESS:    6681026  HIT:    6673259  MISS:       7767  HIT %:    99.8837  MISS %:   0.116255   MPKI: 0.038835
STLB LOAD TRANSLATION ACCESS:    2781066  HIT:    2773299  MISS:       7767  HIT %:    99.7207  MISS %:   0.279281   MPKI: 0.038835
STLB TRANSLATION FROM L1D PREFETCHER ACCESS:    3899960  HIT:    3899960  MISS:          0  HIT %:        100  MISS %:          0   MPKI: 0
STLB PREFETCH  REQUESTED:          0  ISSUED:          0  USEFUL:          0  USELESS:          0
STLB USEFUL LOAD PREFETCHES:          0 PREFETCH ISSUED TO LOWER LEVEL:          0  ACCURACY: -nan
STLB TIMELY PREFETCHES:          0 LATE PREFETCHES: 1 DROPPED PREFETCHES: 727
STLB PREFETCHES SAME FILL-ORIGIN LEVEL: 0 DIFFERENT FILL-ORIGIN LEVEL: 0
STLB AVERAGE MISS LATENCY: 58.5302 cycles
STLB RQ	ACCESS:    6832660	FORWARD:          0	MERGED:     150889	TO_CACHE:    6681771

STLB Hit, L1D data hit: 0
STLB Hit, L2C data hit: 0
STLB Hit, LLC data hit: 0
STLB Hit, LLC data miss: 0
STLB STLB hints to L2: 0
L1D TOTAL     ACCESS:   53425078  HIT:   50398365  MISS:    3026713  HIT %:    94.3347  MISS %:    5.66534   MPKI: 15.1336
L1D LOAD      ACCESS:   29946263  HIT:   27804985  MISS:    2141278  HIT %:    92.8496  MISS %:     7.1504   MPKI: 10.7064
L1D RFO       ACCESS:   19433146  HIT:   18604728  MISS:     828418  HIT %:    95.7371  MISS %:    4.26291   MPKI: 4.14209
L1D PREFETCH  ACCESS:    4045669  HIT:    3988652  MISS:      57017  HIT %:    98.5907  MISS %:    1.40933   MPKI: 0.285085
AGUS PREFETCH L1 MISS: 0
L1D PREFETCH  REQUESTED:    8116573  ISSUED:    8116573  USEFUL:       4722  USELESS:      52276
L1D USEFUL LOAD PREFETCHES:       4722 PREFETCH ISSUED TO LOWER LEVEL:      57358  ACCURACY: 8.2325
L1D TIMELY PREFETCHES:       4722 LATE PREFETCHES: 341 DROPPED PREFETCHES: 840
L1D PREFETCHES SAME FILL-ORIGIN LEVEL: 57358 DIFFERENT FILL-ORIGIN LEVEL: 0
L1D AVERAGE MISS LATENCY: 35078.2 cycles
L1D RQ	ACCESS:   40501292	FORWARD:          0	MERGED:   10218923	TO_CACHE:   30036432
L1D WQ	ACCESS:   20857481	FORWARD:     245950	MERGED:     129287	TO_CACHE:   20728194
L1D PQ	ACCESS:    4064979	FORWARD:          0	MERGED:      13372	TO_CACHE:    4051594

L1D UNIQUE REGIONS ACCESSED: 0
L1D REGIONS CONFLICTS: 0
L1D Cross Page Prefetch Requests: 100855
L1D Same Page Prefetch Requests: 3964124
L1D ROI Sum of L1D PQ occupancy: 52315689
L1D PREFETCHES PUSHED FROM L2C: 0
L1I TOTAL     ACCESS:   41214807  HIT:   33839595  MISS:    7375212  HIT %:    82.1054  MISS %:    17.8946   MPKI: 36.8761
L1I LOAD      ACCESS:   41214807  HIT:   33839595  MISS:    7375212  HIT %:    82.1054  MISS %:    17.8946   MPKI: 36.8761
L1I PREFETCH  REQUESTED:          0  ISSUED:          0  USEFUL:          0  USELESS:          0
L1I USEFUL LOAD PREFETCHES:          0 PREFETCH ISSUED TO LOWER LEVEL:          0  ACCURACY: -nan
L1I TIMELY PREFETCHES:          0 LATE PREFETCHES: 0 DROPPED PREFETCHES: 0
L1I PREFETCHES SAME FILL-ORIGIN LEVEL: 0 DIFFERENT FILL-ORIGIN LEVEL: 0
L1I AVERAGE MISS LATENCY: 16.3822 cycles
L1I RQ	ACCESS:   59992155	FORWARD:          0	MERGED:   17700372	TO_CACHE:   42291783

BTB TOTAL     ACCESS:   31149502  HIT:   22487623  MISS:    8661879  HIT %:    72.1926  MISS %:    27.8074   MPKI: 43.3094
BTB BRANCH_DIRECT_JUMP	ACCESS:    1790889  HIT:    1185918  MISS:     604971
BTB BRANCH_INDIRECT	ACCESS:    9233189  HIT:    5986023  MISS:    3247166
BTB BRANCH_CONDITIONAL	ACCESS:   13716226  HIT:   12843151  MISS:     873075
BTB BRANCH_DIRECT_CALL	ACCESS:    2729399  HIT:    1310065  MISS:    1419334
BTB BRANCH_INDIRECT_CALL	ACCESS:     475210  HIT:     188709  MISS:     286501
BTB BRANCH_RETURN	ACCESS:    3204589  HIT:     973757  MISS:    2230832
BTB BRANCH_OTHER ACCESS:          0  HIT:          0  MISS:          0

L2C TOTAL     ACCESS:   11803712  HIT:   10742254  MISS:    1061458  HIT %:    91.0074  MISS %:    8.99258   MPKI: 5.30729
L2C LOAD      ACCESS:    9516138  HIT:    8653926  MISS:     862212  HIT %:    90.9395  MISS %:    9.06052   MPKI: 4.31106
L2C DATA LOAD MPKI: 1.5421
L2C INSTRUCTION LOAD MPKI: 2.76896
L2C RFO       ACCESS:     828415  HIT:     680652  MISS:     147763  HIT %:    82.1632  MISS %:    17.8368   MPKI: 0.738815
L2C PREFETCH  ACCESS:      57358  HIT:      47499  MISS:       9859  HIT %:    82.8115  MISS %:    17.1885   MPKI: 0.049295
AGUS PREFETCH L1 MISS: 0
L2C DATA PREFETCH MPKI: 0.049295
L2C INSTRUCTION PREFETCH MPKI: 0
L2C WRITEBACK ACCESS:    1392329  HIT:    1356776  MISS:      35553  HIT %:    97.4465  MISS %:    2.55349   MPKI: 0.177765
L2C LOAD TRANSLATION ACCESS:       8687  HIT:       2686  MISS:       6001  HIT %:    30.9198  MISS %:    69.0802   MPKI: 0.030005
L2C TRANSLATION FROM L1D PREFETCHER ACCESS:        785  HIT:        715  MISS:         70  HIT %:    91.0828  MISS %:     8.9172   MPKI: 0.00035
L2C PREFETCH  REQUESTED:          0  ISSUED:          0  USEFUL:        335  USELESS:       9491
L2C USEFUL LOAD PREFETCHES:        335 PREFETCH ISSUED TO LOWER LEVEL:       9859  ACCURACY: 3.39791
L2C TIMELY PREFETCHES:        335 LATE PREFETCHES: 0 DROPPED PREFETCHES: 0
L2C PREFETCHES SAME FILL-ORIGIN LEVEL: 0 DIFFERENT FILL-ORIGIN LEVEL: 0
L2C AVERAGE MISS LATENCY: 43.7141 cycles
L2C RQ	ACCESS:   10354039	FORWARD:          0	MERGED:          0	TO_CACHE:   10354025
L2C WQ	ACCESS:    1392329	FORWARD:         14	MERGED:          0	TO_CACHE:    1392329
L2C PQ	ACCESS:      57358	FORWARD:          0	MERGED:          0	TO_CACHE:      57358

L2C Instructions Evicting Data 231798
L2C Translations Evicting Data 4244
L2C Data Evicting Data 251302
L2C Instructions Evicting Instructions 320336
L2C Translations Evicting Instructions 1748
L2C Data Evicting Instructions 210469
L2C Instructions Evicting Translations 1658
L2C Translations Evicting Translations 79
L2C Data Evicting Translations 4271
L2C Dense regions hint from L2: 0
PSCL5 TOTAL     ACCESS:       8494  HIT:       8494  MISS:          0  HIT %:        100  MISS %:          0   MPKI: 0
PSCL5 LOAD TRANSLATION ACCESS:       7766  HIT:       7766  MISS:          0  HIT %:        100  MISS %:          0   MPKI: 0
PSCL5 TRANSLATION FROM L1D PREFETCHER ACCESS:        728  HIT:        728  MISS:          0  HIT %:        100  MISS %:          0   MPKI: 0
PSCL5 PREFETCH  REQUESTED:          0  ISSUED:          0  USEFUL:          0  USELESS:          0
PSCL5 USEFUL LOAD PREFETCHES:          0 PREFETCH ISSUED TO LOWER LEVEL:          0  ACCURACY: -nan
PSCL5 TIMELY PREFETCHES:          0 LATE PREFETCHES: 0 DROPPED PREFETCHES: 0
PSCL5 PREFETCHES SAME FILL-ORIGIN LEVEL: 0 DIFFERENT FILL-ORIGIN LEVEL: 0

PSCL4 TOTAL     ACCESS:       7888  HIT:       7843  MISS:         45  HIT %:    99.4295  MISS %:   0.570487   MPKI: 0.000225
PSCL4 LOAD TRANSLATION ACCESS:       7160  HIT:       7115  MISS:         45  HIT %:    99.3715  MISS %:   0.628492   MPKI: 0.000225
PSCL4 TRANSLATION FROM L1D PREFETCHER ACCESS:        728  HIT:        728  MISS:          0  HIT %:        100  MISS %:          0   MPKI: 0
PSCL4 PREFETCH  REQUESTED:          0  ISSUED:          0  USEFUL:          0  USELESS:          0
PSCL4 USEFUL LOAD PREFETCHES:          0 PREFETCH ISSUED TO LOWER LEVEL:          0  ACCURACY: -nan
PSCL4 TIMELY PREFETCHES:          0 LATE PREFETCHES: 0 DROPPED PREFETCHES: 0
PSCL4 PREFETCHES SAME FILL-ORIGIN LEVEL: 0 DIFFERENT FILL-ORIGIN LEVEL: 0

PSCL3 TOTAL     ACCESS:       8366  HIT:       8321  MISS:         45  HIT %:    99.4621  MISS %:   0.537891   MPKI: 0.000225
PSCL3 LOAD TRANSLATION ACCESS:       7638  HIT:       7593  MISS:         45  HIT %:    99.4108  MISS %:   0.589159   MPKI: 0.000225
PSCL3 TRANSLATION FROM L1D PREFETCHER ACCESS:        728  HIT:        728  MISS:          0  HIT %:        100  MISS %:          0   MPKI: 0
PSCL3 PREFETCH  REQUESTED:          0  ISSUED:          0  USEFUL:          0  USELESS:          0
PSCL3 USEFUL LOAD PREFETCHES:          0 PREFETCH ISSUED TO LOWER LEVEL:          0  ACCURACY: -nan
PSCL3 TIMELY PREFETCHES:          0 LATE PREFETCHES: 0 DROPPED PREFETCHES: 0
PSCL3 PREFETCHES SAME FILL-ORIGIN LEVEL: 0 DIFFERENT FILL-ORIGIN LEVEL: 0

PSCL2 TOTAL     ACCESS:       8438  HIT:       7602  MISS:        836  HIT %:    90.0924  MISS %:    9.90756   MPKI: 0.00418
PSCL2 LOAD TRANSLATION ACCESS:       7767  HIT:       6931  MISS:        836  HIT %:    89.2365  MISS %:    10.7635   MPKI: 0.00418
PSCL2 TRANSLATION FROM L1D PREFETCHER ACCESS:        671  HIT:        671  MISS:          0  HIT %:        100  MISS %:          0   MPKI: 0
PSCL2 PREFETCH  REQUESTED:          0  ISSUED:          0  USEFUL:          0  USELESS:          0
PSCL2 USEFUL LOAD PREFETCHES:          0 PREFETCH ISSUED TO LOWER LEVEL:          0  ACCURACY: -nan
PSCL2 TIMELY PREFETCHES:          0 LATE PREFETCHES: 0 DROPPED PREFETCHES: 0
PSCL2 PREFETCHES SAME FILL-ORIGIN LEVEL: 0 DIFFERENT FILL-ORIGIN LEVEL: 0

LLC TOTAL     ACCESS:    1226724  HIT:    1133933  MISS:      92791  HIT %:    92.4359  MISS %:    7.56413   MPKI: 0.463955
LLC LOAD      ACCESS:     862212  HIT:     822866  MISS:      39346  HIT %:    95.4366  MISS %:    4.56338   MPKI: 0.19673
LLC RFO       ACCESS:     147763  HIT:      95936  MISS:      51827  HIT %:    64.9256  MISS %:    35.0744   MPKI: 0.259135
LLC PREFETCH  ACCESS:       9859  HIT:       9469  MISS:        390  HIT %:    96.0442  MISS %:    3.95578   MPKI: 0.00195
AGUS PREFETCH L1 MISS: 0
LLC WRITEBACK ACCESS:     200819  HIT:     200027  MISS:        792  HIT %:    99.6056  MISS %:   0.394385   MPKI: 0.00396
LLC LOAD TRANSLATION ACCESS:       6001  HIT:       5565  MISS:        436  HIT %:    92.7345  MISS %:    7.26546   MPKI: 0.00218
LLC TRANSLATION FROM L1D PREFETCHER ACCESS:         70  HIT:         70  MISS:          0  HIT %:        100  MISS %:          0   MPKI: 0
LLC PREFETCH  REQUESTED:          0  ISSUED:          0  USEFUL:         23  USELESS:        208
LLC USEFUL LOAD PREFETCHES:         23 PREFETCH ISSUED TO LOWER LEVEL:        390  ACCURACY: 5.89744
LLC TIMELY PREFETCHES:         23 LATE PREFETCHES: 0 DROPPED PREFETCHES: 0
LLC PREFETCHES SAME FILL-ORIGIN LEVEL: 0 DIFFERENT FILL-ORIGIN LEVEL: 0
LLC AVERAGE MISS LATENCY: 168.035 cycles
LLC RQ	ACCESS:    1016046	FORWARD:          0	MERGED:          0	TO_CACHE:    1016046
LLC WQ	ACCESS:     200819	FORWARD:          0	MERGED:          0	TO_CACHE:     200819
LLC PQ	ACCESS:       9859	FORWARD:          0	MERGED:          0	TO_CACHE:       9859

LLC Dense regions hint to LLC: 0

RAW hits: 1231747
Loads Generated: 41733040
Loads sent to L1D: 40501292
Stores Generated: 20857481
Stores sent to L1D: 20857481
Major fault: 0 Minor fault: 2472
Allocated PAGES: 2472
ucb ended
-----------------------------------------------------------------------------------------------------------------------------------------------------------------------------------------------------
Offsets elements: 1 2 -199222 198983 -199231 1465994467506 1522666 -1522699 -1 -1465994268245 1465994268279 -1465994242010 -1050 -11 1061 -225498 224412 25 1465995765735 -1465995764663 -1097 -25180 26266 -973 -25216 25103 1097 113 -224525 -1522667 -1465994242007 224437 -1465995989925 198984 1465994268240 95 -1465994268334 34 -1465994268280 26271 1072 -1061 1465995765724 -1465995764674 -1465995765647 199232 1465995764674 -1465995790863 -199062 224190 1465994243129 -1465994268335 -33 1522700 -1465995790945 -1465994467508 225498 -1072 11 -36 -224412 1465995790940 199309 26189 -1522666 -225509 1050 -1465995765760 25180 1465995765647 -199309 224525 225251 -1465995990172 -25293 -26189 25128 1465994241996 -1465995790940 -198985 1465994268257 -1465994243129 -25206 25293 984 1465994241997 -1465994268196 247 -1086 1465995765760 -1522606 -1465994243041 -88 -26277 25216 1465994242980 -1465994467505 -1465994467259 4 -2 973 1465994467319 -1465995790941 -224190 1522606 3 1465994268335 1465994268241 -1465994467472 -1465994268242 1465994268275 1465995790945 225509 -1465994242009 1086 -113 199062 1465994467505 -1465994243093 -25103 -224278 1465994268196 -1465994241996 1465994243154 88 -25294 
Potential of Offsets elements: 267.119 1133.12 37.1187 46.1187 100.119 133.119 100.119 58.1187 273.119 46.1187 55.1187 28.1187 67.1187 1057.12 142.119 172.119 136.119 556.119 136.119 100.119 82.1187 126.119 118.119 100.119 82.1187 115.119 82.1187 421.119 140.119 55.1187 28.1187 136.119 64.1187 64.1187 79.1187 322.119 56.1187 904.119 37.1187 82.1187 82.1187 154.119 80.1187 182.119 73.1187 100.119 172.119 100.119 46.1187 55.1187 64.1187 49.1187 358.119 64.1187 64.1187 28.1187 172.119 108.119 1088.12 794.119 136.119 100.119 100.119 118.119 132.119 148.119 58.1187 138.119 142.119 100.119 100.119 106.119 70.1187 184.119 58.1187 124.119 109.119 28.1187 100.119 46.1187 71.1187 52.1187 91.1187 64.1187 64.1187 64.1187 46.1187 88.1187 82.1187 98.1187 64.1187 46.1187 799.119 64.1187 88.1187 28.1187 38.1187 58.1187 1011.12 887.801 100.119 37.1187 148.119 49.1187 58.1187 365.119 49.1187 73.1187 84.1187 76.1187 84.1187 58.1187 94.1187 64.1187 136.119 430.119 46.1187 28.1187 28.1187 97.1187 46.1187 49.1187 28.1187 58.1187 789.119 64.1187 
rewards of Offsets elements: 239 1133 9 18 72 105 72 30 245 18 27 0 39 1029 114 144 108 528 108 72 54 98 90 72 54 87 54 393 112 27 0 108 36 36 51 294 28 876 9 54 54 126 52 154 45 72 144 72 18 27 36 21 330 36 36 0 144 80 1060 766 108 72 72 90 104 120 30 110 114 72 72 78 42 156 30 96 81 0 72 18 43 24 63 36 36 36 18 60 54 70 36 18 771 36 60 0 10 30 983 887 72 9 120 21 30 337 21 45 56 48 56 30 66 36 108 402 18 0 0 69 18 21 0 30 761 36 Printing Sanity3
offset_index value126
offset list size126
reward size126
potential size126
-----------------------------------------------------------------------------------------------------------------------------------------------------------------------------------------------------

DRAM Statistics
 CHANNEL 0
 RQ ROW_BUFFER_HIT:      35005  ROW_BUFFER_MISS:      56985
 DBUS_CONGESTED:         63
 WQ ROW_BUFFER_HIT:       4925  ROW_BUFFER_MISS:      49661  FULL:          0

 AVG_CONGESTED_CYCLE: 5
 All warmup complete: 2
Channel 0 Bank busy for read cycles: 0
Channel 0 Bank busy for write cycles: 0
Channel 0
Rank 0
0banks busy for read cycles: 516684215
0banks busy for write cycles: 11187
1banks busy for read cycles: 2389704
1banks busy for write cycles: 1432509
2banks busy for read cycles: 351307
2banks busy for write cycles: 292654
3banks busy for read cycles: 252705
3banks busy for write cycles: 164699
4banks busy for read cycles: 195733
4banks busy for write cycles: 134111
5banks busy for read cycles: 137777
5banks busy for write cycles: 124451
6banks busy for read cycles: 136398
6banks busy for write cycles: 133666
7banks busy for read cycles: 145045
7banks busy for write cycles: 160790
8banks busy for read cycles: 397332
8banks busy for write cycles: 443064

CPU 0 Branch Prediction Accuracy: 99.773% MPKI: 0.39801 Average ROB Occupancy at Mispredict: 36.1471
Branch types
NOT_BRANCH: 164926668 82.4633%
BRANCH_DIRECT_JUMP: 1790889 0.895444%
BRANCH_INDIRECT: 9233189 4.61659%
BRANCH_CONDITIONAL: 17640059 8.82003%
BRANCH_DIRECT_CALL: 2729399 1.3647%
BRANCH_INDIRECT_CALL: 475210 0.237605%
BRANCH_RETURN: 3204589 1.60229%
BRANCH_OTHER: 0 0%

DRAM PAGES: 1048576
Allocated PAGES: 2472
