
*** ChampSim Multicore Out-of-Order Simulator ***

Warmup Instructions: 50000000
Simulation Instructions: 200000000
Number of CPUs: 1
LLC sets: 2048
LLC ways: 16
Off-chip DRAM Size: 4096 MB Channels: 1 Width: 64-bit Data Rate: 6400 MT/s
CPU 0 runs traces/spec2k17/server_035.champsimtrace.xz
.xz
BTB has LRU replacement policy
ITLB has LRU replacement policy
DTLB has LRU replacement policy
STLB has LRU replacement policy
L1I has LRU replacement policy
L1D has LRU replacement policy
Initialize SRRIP state for L2C
Initialize DRRIP state for LLC
Heartbeat CPU 0 instructions: 10000003 cycles: 2814752 heartbeat IPC: 3.55271 cumulative IPC: 3.55271 (Simulation time: 0 hr 0 min 29 sec) 
Heartbeat CPU 0 instructions: 20000000 cycles: 5628019 heartbeat IPC: 3.55459 cumulative IPC: 3.55365 (Simulation time: 0 hr 0 min 57 sec) 
Heartbeat CPU 0 instructions: 30000002 cycles: 8439567 heartbeat IPC: 3.55676 cumulative IPC: 3.55468 (Simulation time: 0 hr 1 min 27 sec) 
Heartbeat CPU 0 instructions: 40000003 cycles: 11254076 heartbeat IPC: 3.55302 cumulative IPC: 3.55427 (Simulation time: 0 hr 1 min 56 sec) 
Heartbeat CPU 0 instructions: 50000000 cycles: 14066247 heartbeat IPC: 3.55597 cumulative IPC: 3.55461 (Simulation time: 0 hr 2 min 25 sec) 

Warmup complete CPU 0 instructions: 50000004 cycles: 14066248 (Simulation time: 0 hr 2 min 25 sec) 

Offsets elements: 
Potential of Offsets elements: 
rewards of Offsets elements: 
Printing Sanity1
offset list size2127
Offsets elements: 
Potential of Offsets elements: 
rewards of Offsets elements: 0 15 0 0 0 0 0 0 985 1339 1146 0 247 335 0 0 0 0 750 0 1 0 0 0 0 0 984 2841 161 0 2 0 0 919 272 0 182 0 0 0 0 0 0 0 0 0 900 85 166 0 0 0 0 0 0 0 0 214 0 0 0 0 0 0 0 0 0 0 508 0 0 0 0 0 0 0 0 0 0 0 107 0 0 0 0 0 0 217 0 0 15 0 0 0 0 6 0 0 282 0 309 0 0 0 0 0 0 0 0 0 153 163 273 345 352 0 0 0 0 0 0 0 0 0 0 0 0 0 0 0 1305 0 0 0 12 0 0 0 0 0 0 0 0 0 0 17 0 0 0 0 0 0 0 0 0 0 563 0 0 0 0 0 0 0 0 0 0 41 0 0 0 0 30 0 0 0 0 0 20 0 0 0 0 0 0 0 0 0 0 86 45 0 0 0 0 0 0 0 0 0 43 0 0 0 0 754 0 0 0 0 0 0 6 0 0 0 0 0 0 0 0 0 0 9 0 0 0 0 0 0 5 0 0 17 0 0 0 0 0 385 0 0 0 224 0 1 0 543 0 0 0 0 0 0 0 0 64 0 0 0 0 0 3 0 0 0 735 0 0 0 0 0 0 0 0 0 57 0 28 0 0 0 0 0 0 0 0 45 0 52 0 0 0 16 0 0 0 0 0 0 0 0 0 0 0 0 683 0 0 219 0 0 0 0 0 0 0 0 0 129 0 0 32 6 16 0 16 0 0 0 0 0 0 0 0 4 0 0 30 0 0 0 0 0 0 0 0 0 0 34 0 0 0 0 0 0 0 0 0 0 0 0 0 0 1 0 0 0 0 0 0 0 0 0 55 0 0 0 76 0 0 0 0 0 0 0 0 0 0 0 0 0 0 0 0 0 12 0 0 1 444 0 0 0 0 0 0 0 0 0 0 0 0 0 0 0 60 0 1 0 0 0 0 0 0 0 0 0 0 0 0 0 0 0 0 0 4 0 0 112 24 5 0 177 210 783 0 0 0 0 0 0 0 0 0 6 0 0 0 0 0 0 0 0 0 0 0 0 0 0 0 0 0 0 0 291 0 0 274 130 0 0 0 0 2 0 0 0 27 0 0 0 0 0 0 0 0 0 0 0 0 0 0 0 0 0 0 0 0 0 9 4 0 0 0 0 1 0 0 5 0 4 8 0 0 0 0 0 0 0 0 0 155 0 0 0 0 0 0 0 0 0 0 0 0 0 0 0 0 0 0 0 0 0 28 0 0 0 0 10 0 3 0 0 0 16 0 0 0 0 0 0 5 0 0 0 0 44 0 0 0 0 0 0 0 0 13 0 0 0 0 0 0 0 0 0 0 0 11 456 0 0 403 14 0 0 0 0 0 0 90 0 0 0 0 0 0 0 0 0 0 0 0 0 0 0 196 0 0 48 0 2 71 0 0 0 0 0 0 0 0 0 24 494 0 0 348 0 0 0 0 0 0 80 384 0 0 0 0 0 0 0 0 0 12 453 0 0 0 9 0 0 0 2 0 0 3 0 0 216 41 0 0 0 0 0 0 184 0 0 0 0 0 12 0 0 0 3 242 8 0 0 56 0 12 0 0 0 0 0 0 0 0 0 0 2 0 0 0 1 129 9 0 0 0 0 1 0 0 0 0 16 0 0 0 0 0 0 0 0 0 0 481 0 0 312 0 0 12 0 0 0 0 345 0 0 0 14 0 0 0 0 0 0 0 0 0 0 18 0 0 0 0 0 0 12 0 0 0 224 0 0 35 0 0 0 30 0 0 0 0 0 2 0 0 0 0 0 60 0 0 78 0 0 8 0 0 0 0 4 0 36 0 0 39 0 0 0 0 10 2 0 80 0 0 0 66 0 0 0 0 13 0 120 182 0 16 0 0 0 0 0 1 0 0 0 0 0 0 0 0 0 0 3 0 52 12 0 0 0 0 0 0 0 12 0 26 8 0 3 0 0 0 0 0 72 31 0 0 0 0 0 0 0 0 0 2 0 0 0 0 0 0 0 0 0 0 3 0 0 0 0 0 0 0 0 0 0 131 0 0 0 0 0 2 0 0 0 0 45 0 22 0 22 0 9 0 0 0 0 12 0 0 0 0 0 0 0 0 0 0 15 25 6 0 0 0 0 0 0 0 0 7 68 0 0 0 26 0 0 0 0 0 8 5 0 0 0 0 0 0 0 0 0 0 141 0 0 0 0 0 0 0 0 0 1 304 0 0 0 0 0 0 0 0 0 13 130 0 0 0 0 0 0 0 0 0 0 483 52 0 0 0 0 0 0 0 0 0 1752 0 0 0 0 0 0 0 0 0 0 20 0 0 0 0 0 0 0 0 0 0 64 0 0 0 0 0 0 0 0 0 0 297 0 0 0 0 0 0 0 0 5 0 27 0 0 0 0 0 0 0 0 0 0 37 0 0 0 0 0 0 0 0 0 0 20 0 0 0 0 0 0 0 0 0 0 255 0 0 0 0 0 0 0 0 0 0 24 0 0 0 0 0 0 0 0 0 0 52 0 0 0 0 0 0 0 0 0 0 120 0 0 0 0 0 0 0 0 0 22 477 0 0 12 0 0 0 0 0 0 0 118 0 0 6 0 0 0 0 0 0 0 56 0 3 0 0 0 0 0 0 0 405 135 0 0 0 0 0 0 20 0 0 0 0 0 16 32 8 0 0 0 0 0 18 39 0 0 5 0 0 0 0 0 0 8 2 0 0 0 0 0 0 0 0 0 0 0 0 0 0 0 0 0 0 0 0 0 0 0 0 0 0 0 0 0 0 0 0 12 0 0 0 0 2 0 0 0 67 0 0 0 0 0 0 1 0 0 10 0 0 0 0 0 0 16 0 0 0 0 0 0 0 0 0 78 20 6 0 4 2 0 0 0 0 0 0 134 32 0 17 0 0 0 0 0 0 0 0 22 0 9 83 0 0 0 51 133 0 0 424 30 0 182 0 0 0 74 51 0 0 72 0 0 1 0 0 0 0 4 0 0 26 0 0 0 0 0 0 0 70 0 2 9 0 0 0 0 0 0 0 0 0 18 64 0 22 0 0 0 0 0 7 0 12 3 0 0 0 0 0 0 0 0 0 12 10 0 0 0 0 0 0 0 42 0 64 14 0 0 0 0 0 0 0 0 0 27 0 0 0 0 0 0 0 0 0 0 93 0 0 0 0 0 10 0 0 0 0 99 23 0 20 0 0 0 0 0 0 0 135 0 0 20 0 2 0 0 111 0 0 92 0 0 0 0 63 0 0 28 0 0 816 0 9 0 0 0 0 0 0 0 9 27 0 17 0 0 0 0 0 0 0 10 7 0 0 0 0 0 0 158 0 0 16 23 0 6 0 0 0 37 6 12 0 20 16 0 0 0 0 0 0 0 4 0 125 6 0 0 3 0 0 18 11 26 0 4 15 0 45 0 0 0 0 0 0 0 13 13 0 0 0 0 0 46 8 0 0 33 9 0 0 0 0 0 0 15 0 0 0 0 0 0 0 0 0 0 0 0 0 0 46 15 4 0 0 0 0 0 0 0 0 12 16 0 0 0 0 0 0 0 0 0 40 9 12 0 0 0 6 0 0 0 0 21 0 0 0 0 0 0 0 0 0 0 114 3 0 10 0 20 0 0 0 0 0 0 0 0 0 0 0 0 0 0 0 0 0 0 0 0 0 4 0 0 0 0 148 0 0 0 0 0 0 0 0 0 0 1 0 0 0 0 0 0 0 0 0 0 3 0 0 0 0 0 0 0 0 0 0 0 0 0 0 2 0 0 0 0 0 0 12 0 0 0 0 0 0 0 0 0 0 0 0 0 0 0 0 0 0 0 0 0 0 0 0 36 0 0 0 0 0 0 0 185 0 0 0 0 0 0 0 0 0 0 0 0 0 0 0 0 0 0 0 0 0 0 0 0 9 0 1 0 0 0 0 0 0 0 0 0 0 0 0 0 0 0 16 16 0 0 0 0 0 0 0 0 0 0 96 0 0 0 0 0 0 444 582 5 0 0 0 0 0 0 0 0 0 0 0 0 0 0 0 0 0 0 0 0 377 0 0 76 0 0 53 0 0 0 0 12 0 0 34 0 0 0 0 0 0 0 179 0 0 507 0 0 0 0 0 0 0 0 0 20 195 0 0 0 0 0 0 0 20 0 0 0 0 0 0 0 0 0 0 0 0 2 6 0 0 0 0 0 0 192 0 0 8 28 0 0 0 16 0 0 0 0 0 3 20 0 0 0 0 0 0 0 0 0 0 0 0 0 0 0 0 0 0 0 2 0 0 0 0 0 0 0 0 0 0 0 0 0 0 0 0 0 0 0 0 0 0 0 0 0 0 8 0 0 0 0 0 12 118 0 0 0 0 0 0 4 0 0 0 0 0 0 0 0 0 0 0 0 0 0 0 0 0 0 0 0 0 104 36 42 0 0 0 0 0 34 0 0 0 35 22 0 17 0 0 0 16 3 0 0 0 0 0 0 0 0 0 6 234 0 0 0 0 0 2 0 0 0 0 0 0 0 0 0 0 80 0 0 0 0 2 0 16 0 3 0 12 0 0 0 0 0 0 0 0 0 126 2 0 0 0 0 8 0 0 0 0 0 3 0 0 0 0 0 0 24 0 0 13 45 0 0 0 0 0 0 20 0 0 0 12 0 0 0 0 0 0 0 0 0 0 30 0 0 0 0 8 0 0 0 0 2 6 0 0 0 0 3 0 0 0 0 6 0 0 0 4 0 0 0 0 0 0 0 0 0 0 40 0 0 0 0 0 0 0 0 0 0 0 0 0 
Printing Sanity2
Heartbeat CPU 0 instructions: 60000000 cycles: 42570168 heartbeat IPC: 0.350829 cumulative IPC: 0.350829 (Simulation time: 0 hr 3 min 31 sec) 
Heartbeat CPU 0 instructions: 70000001 cycles: 71308725 heartbeat IPC: 0.347965 cumulative IPC: 0.349391 (Simulation time: 0 hr 4 min 36 sec) 
Heartbeat CPU 0 instructions: 80000000 cycles: 99743782 heartbeat IPC: 0.351679 cumulative IPC: 0.35015 (Simulation time: 0 hr 5 min 42 sec) 
Heartbeat CPU 0 instructions: 90000000 cycles: 128683658 heartbeat IPC: 0.345544 cumulative IPC: 0.348987 (Simulation time: 0 hr 6 min 45 sec) 
Heartbeat CPU 0 instructions: 100000000 cycles: 157135415 heartbeat IPC: 0.351472 cumulative IPC: 0.349481 (Simulation time: 0 hr 7 min 47 sec) 
*** Reached end of trace for Core: 0 Repeating trace: traces/spec2k17/server_035.champsimtrace.xz
Heartbeat CPU 0 instructions: 110000000 cycles: 185316113 heartbeat IPC: 0.354853 cumulative IPC: 0.350365 (Simulation time: 0 hr 8 min 51 sec) 
Heartbeat CPU 0 instructions: 120000002 cycles: 213660604 heartbeat IPC: 0.352802 cumulative IPC: 0.350711 (Simulation time: 0 hr 9 min 55 sec) 
Heartbeat CPU 0 instructions: 130000001 cycles: 242392913 heartbeat IPC: 0.34804 cumulative IPC: 0.350375 (Simulation time: 0 hr 11 min 1 sec) 
Heartbeat CPU 0 instructions: 140000000 cycles: 271317955 heartbeat IPC: 0.345721 cumulative IPC: 0.349852 (Simulation time: 0 hr 12 min 6 sec) 
Heartbeat CPU 0 instructions: 150000001 cycles: 299647643 heartbeat IPC: 0.352987 cumulative IPC: 0.350163 (Simulation time: 0 hr 13 min 9 sec) 
Heartbeat CPU 0 instructions: 160000000 cycles: 328315810 heartbeat IPC: 0.348819 cumulative IPC: 0.35004 (Simulation time: 0 hr 14 min 13 sec) 
Heartbeat CPU 0 instructions: 170000000 cycles: 356821204 heartbeat IPC: 0.350811 cumulative IPC: 0.350104 (Simulation time: 0 hr 15 min 18 sec) 
Heartbeat CPU 0 instructions: 180000000 cycles: 385122370 heartbeat IPC: 0.353342 cumulative IPC: 0.350351 (Simulation time: 0 hr 16 min 21 sec) 
Heartbeat CPU 0 instructions: 190000000 cycles: 413928964 heartbeat IPC: 0.347143 cumulative IPC: 0.35012 (Simulation time: 0 hr 17 min 27 sec) 
Heartbeat CPU 0 instructions: 200000000 cycles: 442489300 heartbeat IPC: 0.350136 cumulative IPC: 0.350121 (Simulation time: 0 hr 18 min 29 sec) 
*** Reached end of trace for Core: 0 Repeating trace: traces/spec2k17/server_035.champsimtrace.xz
Heartbeat CPU 0 instructions: 210000000 cycles: 471211280 heartbeat IPC: 0.348165 cumulative IPC: 0.349998 (Simulation time: 0 hr 19 min 30 sec) 
Heartbeat CPU 0 instructions: 220000000 cycles: 499031790 heartbeat IPC: 0.359447 cumulative IPC: 0.35054 (Simulation time: 0 hr 20 min 32 sec) 
Heartbeat CPU 0 instructions: 230000000 cycles: 527833726 heartbeat IPC: 0.347199 cumulative IPC: 0.350353 (Simulation time: 0 hr 21 min 35 sec) 
Heartbeat CPU 0 instructions: 240000002 cycles: 556169802 heartbeat IPC: 0.352907 cumulative IPC: 0.350487 (Simulation time: 0 hr 22 min 39 sec) 
Heartbeat CPU 0 instructions: 250000000 cycles: 585024322 heartbeat IPC: 0.346566 cumulative IPC: 0.350288 (Simulation time: 0 hr 23 min 45 sec) 
Finished CPU 0 instructions: 200000002 cycles: 570958124 cumulative IPC: 0.350288 (Simulation time: 0 hr 23 min 45 sec) 

ChampSim completed all CPUs

Region of Interest Statistics

CPU 0 cumulative IPC: 0.350288 instructions: 200000002 cycles: 570958124
ITLB TOTAL     ACCESS:   35618890  HIT:   33574628  MISS:    2044262  HIT %:    94.2607  MISS %:    5.73926   MPKI: 10.2213
ITLB LOAD TRANSLATION ACCESS:   35618890  HIT:   33574628  MISS:    2044262  HIT %:    94.2607  MISS %:    5.73926   MPKI: 10.2213
ITLB PREFETCH  REQUESTED:          0  ISSUED:          0  USEFUL:          0  USELESS:          0
ITLB USEFUL LOAD PREFETCHES:          0 PREFETCH ISSUED TO LOWER LEVEL:          0  ACCURACY: -nan
ITLB TIMELY PREFETCHES:          0 LATE PREFETCHES: 0 DROPPED PREFETCHES: 0
ITLB PREFETCHES SAME FILL-ORIGIN LEVEL: 0 DIFFERENT FILL-ORIGIN LEVEL: 0
ITLB AVERAGE MISS LATENCY: 9.08614 cycles
ITLB RQ	ACCESS:   41308284	FORWARD:          0	MERGED:    5232955	TO_CACHE:   36075329

DTLB TOTAL     ACCESS:   39260677  HIT:   37538055  MISS:    1722622  HIT %:    95.6123  MISS %:    4.38765   MPKI: 8.61311
DTLB LOAD TRANSLATION ACCESS:   39260677  HIT:   37538055  MISS:    1722622  HIT %:    95.6123  MISS %:    4.38765   MPKI: 8.61311
DTLB PREFETCH  REQUESTED:          0  ISSUED:          0  USEFUL:          0  USELESS:          0
DTLB USEFUL LOAD PREFETCHES:          0 PREFETCH ISSUED TO LOWER LEVEL:          0  ACCURACY: -nan
DTLB TIMELY PREFETCHES:          0 LATE PREFETCHES: 0 DROPPED PREFETCHES: 0
DTLB PREFETCHES SAME FILL-ORIGIN LEVEL: 0 DIFFERENT FILL-ORIGIN LEVEL: 0
DTLB AVERAGE MISS LATENCY: 9.99181 cycles
DTLB RQ	ACCESS:   54899098	FORWARD:          0	MERGED:   15567183	TO_CACHE:   39331915

STLB TOTAL     ACCESS:    3799085  HIT:    3765071  MISS:      34014  HIT %:    99.1047  MISS %:   0.895321   MPKI: 0.17007
STLB LOAD TRANSLATION ACCESS:    3766884  HIT:    3732870  MISS:      34014  HIT %:     99.097  MISS %:   0.902974   MPKI: 0.17007
STLB TRANSLATION FROM L1D PREFETCHER ACCESS:      32201  HIT:      32201  MISS:          0  HIT %:        100  MISS %:          0   MPKI: 0
STLB PREFETCH  REQUESTED:          0  ISSUED:          0  USEFUL:          0  USELESS:          0
STLB USEFUL LOAD PREFETCHES:          0 PREFETCH ISSUED TO LOWER LEVEL:          0  ACCURACY: -nan
STLB TIMELY PREFETCHES:          0 LATE PREFETCHES: 0 DROPPED PREFETCHES: 111
STLB PREFETCHES SAME FILL-ORIGIN LEVEL: 0 DIFFERENT FILL-ORIGIN LEVEL: 0
STLB AVERAGE MISS LATENCY: 54.1794 cycles
STLB RQ	ACCESS:    3811165	FORWARD:          0	MERGED:      11961	TO_CACHE:    3799204

STLB Hit, L1D data hit: 0
STLB Hit, L2C data hit: 0
STLB Hit, LLC data hit: 0
STLB Hit, LLC data miss: 0
STLB STLB hints to L2: 0
L1D TOTAL     ACCESS:   54495556  HIT:   52049038  MISS:    2446518  HIT %:    95.5106  MISS %:    4.48939   MPKI: 12.2326
L1D LOAD      ACCESS:   30115621  HIT:   28043592  MISS:    2072029  HIT %:    93.1198  MISS %:    6.88025   MPKI: 10.3601
L1D RFO       ACCESS:   24336669  HIT:   23965380  MISS:     371289  HIT %:    98.4744  MISS %:    1.52564   MPKI: 1.85644
L1D PREFETCH  ACCESS:      43266  HIT:      40066  MISS:       3200  HIT %:    92.6039  MISS %:    7.39611   MPKI: 0.016
AGUS PREFETCH L1 MISS: 0
L1D PREFETCH  REQUESTED:      89504  ISSUED:      89504  USEFUL:       1495  USELESS:       1705
L1D USEFUL LOAD PREFETCHES:       1495 PREFETCH ISSUED TO LOWER LEVEL:       3201  ACCURACY: 46.7042
L1D TIMELY PREFETCHES:       1495 LATE PREFETCHES: 1 DROPPED PREFETCHES: 144
L1D PREFETCHES SAME FILL-ORIGIN LEVEL: 3201 DIFFERENT FILL-ORIGIN LEVEL: 0
L1D AVERAGE MISS LATENCY: 173.015 cycles
L1D RQ	ACCESS:   43297190	FORWARD:          0	MERGED:   12761483	TO_CACHE:   30199764
L1D WQ	ACCESS:   24970645	FORWARD:     335943	MERGED:     271311	TO_CACHE:   24699334
L1D PQ	ACCESS:      45223	FORWARD:          0	MERGED:        942	TO_CACHE:      44281

L1D UNIQUE REGIONS ACCESSED: 0
L1D REGIONS CONFLICTS: 0
L1D Cross Page Prefetch Requests: 7489
L1D Same Page Prefetch Requests: 37734
L1D ROI Sum of L1D PQ occupancy: 580958
L1D PREFETCHES PUSHED FROM L2C: 0
L1I TOTAL     ACCESS:   38656739  HIT:   25870319  MISS:   12786420  HIT %:    66.9232  MISS %:    33.0768   MPKI: 63.9321
L1I LOAD      ACCESS:   38656739  HIT:   25870319  MISS:   12786420  HIT %:    66.9232  MISS %:    33.0768   MPKI: 63.9321
L1I PREFETCH  REQUESTED:          0  ISSUED:          0  USEFUL:          0  USELESS:          0
L1I USEFUL LOAD PREFETCHES:          0 PREFETCH ISSUED TO LOWER LEVEL:          0  ACCURACY: -nan
L1I TIMELY PREFETCHES:          0 LATE PREFETCHES: 0 DROPPED PREFETCHES: 0
L1I PREFETCHES SAME FILL-ORIGIN LEVEL: 0 DIFFERENT FILL-ORIGIN LEVEL: 0
L1I AVERAGE MISS LATENCY: 14.3588 cycles
L1I RQ	ACCESS:   61004759	FORWARD:          0	MERGED:   19696475	TO_CACHE:   41308284

BTB TOTAL     ACCESS:   31158249  HIT:   22772679  MISS:    8385570  HIT %:    73.0872  MISS %:    26.9128   MPKI: 41.9278
BTB BRANCH_DIRECT_JUMP	ACCESS:    2947353  HIT:    2315064  MISS:     632289
BTB BRANCH_INDIRECT	ACCESS:   13078897  HIT:    9492313  MISS:    3586584
BTB BRANCH_CONDITIONAL	ACCESS:    5413262  HIT:    4750583  MISS:     662679
BTB BRANCH_DIRECT_CALL	ACCESS:    4056170  HIT:    3104100  MISS:     952070
BTB BRANCH_INDIRECT_CALL	ACCESS:     803174  HIT:     456636  MISS:     346538
BTB BRANCH_RETURN	ACCESS:    4859393  HIT:    2653983  MISS:    2205410
BTB BRANCH_OTHER ACCESS:          0  HIT:          0  MISS:          0

L2C TOTAL     ACCESS:   16155659  HIT:   15380252  MISS:     775407  HIT %:    95.2004  MISS %:     4.7996   MPKI: 3.87703
L2C LOAD      ACCESS:   14858414  HIT:   14212490  MISS:     645924  HIT %:    95.6528  MISS %:    4.34719   MPKI: 3.22962
L2C DATA LOAD MPKI: 3.02784
L2C INSTRUCTION LOAD MPKI: 0.20178
L2C RFO       ACCESS:     371289  HIT:     271988  MISS:      99301  HIT %:    73.2551  MISS %:    26.7449   MPKI: 0.496505
L2C PREFETCH  ACCESS:       3201  HIT:        296  MISS:       2905  HIT %:    9.24711  MISS %:    90.7529   MPKI: 0.014525
AGUS PREFETCH L1 MISS: 0
L2C DATA PREFETCH MPKI: 0.014525
L2C INSTRUCTION PREFETCH MPKI: 0
L2C WRITEBACK ACCESS:     886169  HIT:     873591  MISS:      12578  HIT %:    98.5806  MISS %:    1.41937   MPKI: 0.06289
L2C LOAD TRANSLATION ACCESS:      36475  HIT:      21779  MISS:      14696  HIT %:    59.7094  MISS %:    40.2906   MPKI: 0.07348
L2C TRANSLATION FROM L1D PREFETCHER ACCESS:        111  HIT:        108  MISS:          3  HIT %:    97.2973  MISS %:     2.7027   MPKI: 1.5e-05
L2C PREFETCH  REQUESTED:          0  ISSUED:          0  USEFUL:         11  USELESS:       2897
L2C USEFUL LOAD PREFETCHES:         11 PREFETCH ISSUED TO LOWER LEVEL:       2905  ACCURACY: 0.378657
L2C TIMELY PREFETCHES:         11 LATE PREFETCHES: 0 DROPPED PREFETCHES: 0
L2C PREFETCHES SAME FILL-ORIGIN LEVEL: 0 DIFFERENT FILL-ORIGIN LEVEL: 0
L2C AVERAGE MISS LATENCY: 155.388 cycles
L2C RQ	ACCESS:   15266325	FORWARD:          0	MERGED:          0	TO_CACHE:   15266291
L2C WQ	ACCESS:     886169	FORWARD:         34	MERGED:          0	TO_CACHE:     886169
L2C PQ	ACCESS:       3201	FORWARD:          0	MERGED:          0	TO_CACHE:       3201

L2C Instructions Evicting Data 28642
L2C Translations Evicting Data 13843
L2C Data Evicting Data 666674
L2C Instructions Evicting Instructions 11298
L2C Translations Evicting Instructions 554
L2C Data Evicting Instructions 27358
L2C Instructions Evicting Translations 416
L2C Translations Evicting Translations 302
L2C Data Evicting Translations 13742
L2C Dense regions hint from L2: 0
PSCL5 TOTAL     ACCESS:      34125  HIT:      34125  MISS:          0  HIT %:        100  MISS %:          0   MPKI: 0
PSCL5 LOAD TRANSLATION ACCESS:      34014  HIT:      34014  MISS:          0  HIT %:        100  MISS %:          0   MPKI: 0
PSCL5 TRANSLATION FROM L1D PREFETCHER ACCESS:        111  HIT:        111  MISS:          0  HIT %:        100  MISS %:          0   MPKI: 0
PSCL5 PREFETCH  REQUESTED:          0  ISSUED:          0  USEFUL:          0  USELESS:          0
PSCL5 USEFUL LOAD PREFETCHES:          0 PREFETCH ISSUED TO LOWER LEVEL:          0  ACCURACY: -nan
PSCL5 TIMELY PREFETCHES:          0 LATE PREFETCHES: 0 DROPPED PREFETCHES: 0
PSCL5 PREFETCHES SAME FILL-ORIGIN LEVEL: 0 DIFFERENT FILL-ORIGIN LEVEL: 0

PSCL4 TOTAL     ACCESS:      32441  HIT:      32379  MISS:         62  HIT %:    99.8089  MISS %:   0.191116   MPKI: 0.00031
PSCL4 LOAD TRANSLATION ACCESS:      32330  HIT:      32268  MISS:         62  HIT %:    99.8082  MISS %:   0.191772   MPKI: 0.00031
PSCL4 TRANSLATION FROM L1D PREFETCHER ACCESS:        111  HIT:        111  MISS:          0  HIT %:        100  MISS %:          0   MPKI: 0
PSCL4 PREFETCH  REQUESTED:          0  ISSUED:          0  USEFUL:          0  USELESS:          0
PSCL4 USEFUL LOAD PREFETCHES:          0 PREFETCH ISSUED TO LOWER LEVEL:          0  ACCURACY: -nan
PSCL4 TIMELY PREFETCHES:          0 LATE PREFETCHES: 0 DROPPED PREFETCHES: 0
PSCL4 PREFETCHES SAME FILL-ORIGIN LEVEL: 0 DIFFERENT FILL-ORIGIN LEVEL: 0

PSCL3 TOTAL     ACCESS:      33223  HIT:      33098  MISS:        125  HIT %:    99.6238  MISS %:   0.376245   MPKI: 0.000625
PSCL3 LOAD TRANSLATION ACCESS:      33112  HIT:      32987  MISS:        125  HIT %:    99.6225  MISS %:   0.377507   MPKI: 0.000625
PSCL3 TRANSLATION FROM L1D PREFETCHER ACCESS:        111  HIT:        111  MISS:          0  HIT %:        100  MISS %:          0   MPKI: 0
PSCL3 PREFETCH  REQUESTED:          0  ISSUED:          0  USEFUL:          0  USELESS:          0
PSCL3 USEFUL LOAD PREFETCHES:          0 PREFETCH ISSUED TO LOWER LEVEL:          0  ACCURACY: -nan
PSCL3 TIMELY PREFETCHES:          0 LATE PREFETCHES: 0 DROPPED PREFETCHES: 0
PSCL3 PREFETCHES SAME FILL-ORIGIN LEVEL: 0 DIFFERENT FILL-ORIGIN LEVEL: 0

PSCL2 TOTAL     ACCESS:      34125  HIT:      31849  MISS:       2276  HIT %:    93.3304  MISS %:     6.6696   MPKI: 0.01138
PSCL2 LOAD TRANSLATION ACCESS:      34014  HIT:      31738  MISS:       2276  HIT %:    93.3086  MISS %:    6.69136   MPKI: 0.01138
PSCL2 TRANSLATION FROM L1D PREFETCHER ACCESS:        111  HIT:        111  MISS:          0  HIT %:        100  MISS %:          0   MPKI: 0
PSCL2 PREFETCH  REQUESTED:          0  ISSUED:          0  USEFUL:          0  USELESS:          0
PSCL2 USEFUL LOAD PREFETCHES:          0 PREFETCH ISSUED TO LOWER LEVEL:          0  ACCURACY: -nan
PSCL2 TIMELY PREFETCHES:          0 LATE PREFETCHES: 0 DROPPED PREFETCHES: 0
PSCL2 PREFETCHES SAME FILL-ORIGIN LEVEL: 0 DIFFERENT FILL-ORIGIN LEVEL: 0

LLC TOTAL     ACCESS:    1119380  HIT:     509148  MISS:     610232  HIT %:    45.4848  MISS %:    54.5152   MPKI: 3.05116
LLC LOAD      ACCESS:     645924  HIT:     114418  MISS:     531506  HIT %:    17.7138  MISS %:    82.2862   MPKI: 2.65753
LLC RFO       ACCESS:      99301  HIT:      31880  MISS:      67421  HIT %:    32.1044  MISS %:    67.8956   MPKI: 0.337105
LLC PREFETCH  ACCESS:       2905  HIT:       1015  MISS:       1890  HIT %:    34.9398  MISS %:    65.0602   MPKI: 0.00945
AGUS PREFETCH L1 MISS: 0
LLC WRITEBACK ACCESS:     356551  HIT:     350842  MISS:       5709  HIT %:    98.3988  MISS %:    1.60117   MPKI: 0.028545
LLC LOAD TRANSLATION ACCESS:      14696  HIT:      10993  MISS:       3703  HIT %:    74.8027  MISS %:    25.1973   MPKI: 0.018515
LLC TRANSLATION FROM L1D PREFETCHER ACCESS:          3  HIT:          0  MISS:          3  HIT %:          0  MISS %:        100   MPKI: 1.5e-05
LLC PREFETCH  REQUESTED:          0  ISSUED:          0  USEFUL:         10  USELESS:       1725
LLC USEFUL LOAD PREFETCHES:         10 PREFETCH ISSUED TO LOWER LEVEL:       1890  ACCURACY: 0.529101
LLC TIMELY PREFETCHES:         10 LATE PREFETCHES: 0 DROPPED PREFETCHES: 0
LLC PREFETCHES SAME FILL-ORIGIN LEVEL: 0 DIFFERENT FILL-ORIGIN LEVEL: 0
LLC AVERAGE MISS LATENCY: 159.938 cycles
LLC RQ	ACCESS:     759924	FORWARD:          0	MERGED:          0	TO_CACHE:     759924
LLC WQ	ACCESS:     356551	FORWARD:          0	MERGED:          0	TO_CACHE:     356551
LLC PQ	ACCESS:       2905	FORWARD:          0	MERGED:          0	TO_CACHE:       2905

LLC Dense regions hint to LLC: 0

RAW hits: 2869898
Loads Generated: 46167088
Loads sent to L1D: 43297190
Stores Generated: 24970642
Stores sent to L1D: 24970645
Major fault: 0 Minor fault: 5644
Allocated PAGES: 5644
ucb ended
-----------------------------------------------------------------------------------------------------------------------------------------------------------------------------------------------------
Offsets elements: 2200614635836 -3739759892 3739759892 14868626 -3754628518 4365291 -3744125183 3744125182 2 -2 1 151623 -21 17 -2200619153324 2200619153324 -151619 151620 -3 -151615 -2200619000899 -810 2200619153325 -151621 151621 151619 3 -1 -15 81368 -2200619318060 2200619085091 -151620 -6 7 151622 -10 -2200619152472 2200619000861 151612 -2200619152473 2200619152479 -2200619152479 2200619000857 -151618 151611 5 -17 12 -151610 151618 151616 -151622 151614 2200619152473 -151611 151617 -23 56336 -2200619208793 2200619152480 -2200619001704 2200619153326 -2200619152515 2200619152499 -151604 348940 -348947 11 -2200619153330 2200619500600 -347275 -151616 500557 -267591 -232968 500559 -1668 -347279 -348939 -18 348963 -348963 -151597 151597 348962 -348945 -16 348966 -2200619477753 2200618977193 -151598 348946 -348948 348949 -1644 -347300 348943 9 2200619153319 6 348942 -348944 -2200619152495 2200619501458 -2200619501459 2200619152510 -151612 500558 -348938 19 -20 18 8 -5 187846 -339446 339446 -33620 33625 -106591 106591 -106590 106589 -106589 106590 82313 -62440 -252740 252712 -4 -252725 252725 -2200619254215 2200619254203 -2200619254216 2200629502673 -2766 -2200629499907 2200629501559 1420 -10501476 10500091 -10247362 10247379 -2200629501581 2398 2200618999087 10500093 -10500093 -2200619001481 2200619254209 10247365 -10247377 -2200619369621 2200619369636 -13 -221007 10468378 -10500096 -221004 -10247371 -221006 221008 -252723 252721 221007 -221005 221032 10247311 37 -10247380 32 -221035 -31715 -2200619001498 2200629501370 -10468157 -2200619031211 2200619252218 -252722 31715 221006 -252721 26629 10220711 -10500065 279355 10220710 33 -34 -10468379 10468347 -10220709 -247635 -1059530 1307167 -279352 279352 -10220714 10220709 -10500062 10500063 -2200629499559 2200619278848 4 -10500059 252713 10247378 -10247376 -2200619257334 -112272 2200629616988 -2200629504712 2200629504715 1077 -2200629505792 33561 -145903 115481 831 -116312 2200619116958 -2200619001477 -115481 2200619001478 2200629504712 252716 -2200619369620 2200629616999 -35 -10247317 -252738 232863 -339452 339447 151596 -151595 151599 -8 -12601819 12450225 151609 15 81353 -2200619318059 2200619236704 -9 2200619000863 -2200619153319 2200619153318 -2200619153121 2200629503239 -10501731 151613 -151613 10501730 -10501730 10350118 -566 -10501165 -2200619001509 2200629504665 -2200629504665 -2200629503436 2200629503436 -7 -10350118 10501728 151592 -151591 207913 -207914 -72465750810 72465750811 10503170 -10503174 -2200619001722 2200619001725 10503167 -10503166 10503049 -10503052 -85341 10588496 -10503154 10501145 -2200629471876 2200618885390 85341 -85344 85343 -85345 85346 500526 -348907 -2200619153348 2200619153347 151595 348930 -292634 -72465958707 72465750816 500527 -348925 -151617 -12 -2200619152544 2200619152538 10 -2200619153347 -2200619152545 2200619152537 -2200619153356 2200619153337 -12785333 12633731 151594 -236950 85356 -2200619128818 2200619128823 10586486 2200618970745 -85355 -85359 85364 -288223780680148016 -18873452 18873451 -18987156 -1465996501585 3264 1465996498321 -1465996501576 7336 1292 -6147 -2484 2482 3442 -5923 2487 6142 218 -368 301 -459 760 42 -849 381 -6208 6217 -329 339 -359 271 91 -88 -6144 -270 360 -358 270 -5871 6141 90 -360 357 1466015480018 -1466015480104 1466015480105 -1466015488740 1465996615285 18873454 -18987160 18987160 -1466015488744 18873459 -1466015486280 5215 1465996493901 -1465996492948 1465996492951 -1465996488770 1465996488770 -1465996501542 12769 1465996542061 -1465996542062 1465996542162 -131 53638 -53576 -1465996551034 1466015484874 -18933903 -1465996604610 612 1466015484271 -1466015475935 1466015475930 -18987159 -1465996501550 1465996604644 -103097 -1465996488769 1465996488768 -1465996501566 2475 6144 1465996492948 -1465996501546 1465996604915 288223780709533199 -10586761 -2200619034161 2200619034161 25 83689 340036 -833715 827016 -331697 331695 -331698 -12633721 12633724 331693 -2200619416627 2200606451210 12785374 -2200619128878 2200619128881 -151659 -85351 237010 -237010 85351 10501135 2200618970742 151656 22 21 16 412935 -412932 -151677 564609 -564607 399788 -399787 151673 -2200619153420 2200619001736 151677 412931 -412952 412950 -649963 649964 -412950 -2200619128877 2200619128880 -151661 564613 -564612 -164795 -399818 564612 -564614 151679 -151657 151657 14 -2200619152603 2200619152586 13 -14 -151678 -85352 -2200619128881 2200619128883 2200618970741 -85356 -288223780680148010 -1466015488728 -2485 3260 5369 1466015480110 -1465996501579 2481 1465996499099 -1465996495659 1465996495655 -1465996501588 1465996501586 -1465996488771 -12571 6987 -7240 1465996615260 -60415 101 18933770 -18933871 -31 131 -69 53576 -53541 109 -109 -97 36 18933803 -18933778 -32 -1465996538962 1465996539070 18933692 -18933800 -1465996538961 1466015472766 -1466015488743 1466015488743 -18873458 18873457 -1466015488729 1466015488729 -1466015486253 13486 -1466015488687 1466015488687 -1466015475932 -5584 1465996494355 -1465996485605 -15981 15981 1465996485605 -1465996501342 1465996501342 -1465996494349 5576 -5559 5561 3167 -10054 10054 1465996485607 -1465996485607 -15973 3259 12712 -15921 -1466015472766 15982 -15738 5808 9910 -1465996501583 2483 13512 1465996485587 18987161 -1466015487467 11534 1465996488774 -1465996501582 8632 -6145 6147 6150 6148 -8634 8634 1465996606651 -113704 -1465996485602 -3166 3166 -3183 -8341 -6415 14756 -14756 6415 8341 11526 -11526 -6414 14755 -14755 6414 11527 1466015472743 -1466015472763 -3186 3180 1466015472745 -1466015472744 1465996485606 -1465996492949 1465996492947 -1465996485603 12573 -6764 9930 15737 -8750 8756 11524 -17936 14753 -6412 -14753 6412 -8340 8340 1466015484268 -1466015472761 -3184 3183 -19 1466015472765 -1466015472718 -27 -15970 15970 28 -9957 1878 8087 -8087 -15687 -352 15980 1465996599305 -1465996599260 -45 1466015472763 -1466015484268 -1466015472755 -15996 12812 1465996602473 -1465996602473 -7967 4801 1466015475929 -1466015488741 18873455 -1466015488742 18873456 -1466015488500 8751 -8755 5572 1466015475927 -1466015472743 3172 1466015472757 -1466015472745 1465996488769 -1465996492947 -1465996485598 -15753 -9929 1938 7990 244 486 5322 1169 23 1466015481480 1466015472746 -1466015472746 -7989 7991 -15751 -8744 699 -3469 3469 -604 605 -3470 8037 -15737 7090 -7090 15751 -8655 8641 -8647 1466015481400 -1466015481497 1466015481496 -1466015472742 8649 8663 -8657 -8632 -1465996495658 1465996495659 -1465996494237 -1465996488773 -5464 -1423 -5920 4856 8636 -8636 1465996494243 -1465996485589 -8654 8654 8637 -8637 1465996494244 -1465996485600 -8642 8652 -8658 8645 7989 -15251 1179 8766 -1466015481407 -1266 1173 765 -777 126 8642 -7988 7988 -15994 15996 1465996599289 -1465996599307 -15290 6644 1466015481387 -1466015488739 18873452 -8006 15994 1465996599291 -1465996599289 -15300 6654 1466015481388 18873453 -1466015480733 7987 -7987 7971 -15312 1465996500917 -1465996494251 5478 -5460 1466015481389 -8007 662 15316 1465996599307 -1465996607953 1466015481390 18873418 -1466015472708 -7986 -8008 15978 -15325 1465996614632 18873449 -1466015472741 -1466015480732 7970 -15345 6683 8646 7986 -1465996607276 -8009 15992 1465996599293 -1465996610813 1466015484267 18873446 -1466015480723 7985 18873447 -1466015480724 -1465996599291 -7985 -1465996599294 -15992 1465996497111 -8639 -7311 7390 -79 -11520 1466015484263 -7345 18873450 -1466015488735 -8633 -7346 -1466015472762 -15977 100 53507 35 62 -53540 18933789 -18933764 -25 -1465996538929 1465996539005 18933679 -18933787 18933790 1466015488730 -18873445 -1465996599308 1466015472753 -1466015472753 -15978 1466015488739 1466015488737 18873443 -1466015488674 1465996604629 10602 -10334 -2200619034179 53217 64982 2200614635988 14868646 -10579192 -4289454 4289582 75767 -288225246695535350 288225246695620707 -85333 303112 -219421 1640 -1640 12924 -351318 338394 12920 -352956 -338394 -1639 340034 -12924 12922 -12922 -833734 495342 -1641 1642 -85335 -2200618916294 3928 -3639 2200614636013 14868620 -10183406 -4685222 4365317 -2200619001319 -300 2200629504975 -10503356 -1046363 -2200617947919 2200618994282 -75896 -2200618925726 2200618925726 75894 -85331 -957603 -11607447 11607447 1042927 -12650380 12650374 -75888 -12663716 -2200606449476 2200606449485 12578375 -12578384 11617346 -11617346 12617071 -12617071 12663705 -2200619001619 2200617973667 -72464722841 -2128153250826 2200619001611 -12650379 12650371 -12650373 12650380 1027944 -72465750785 72465750794 -12650371 12650373 -12650381 12650381 999725 12663704 -12663704 12464619 174267 24809 -12663705 12578384 -961036 1293778 -247419 12617086 254173 -292875 -960670 1045992 -199078 113756 -113756 -846914 1021181 -174267 -960668 -2200617953716 2200618999706 -199076 -2200618795205 -85322 -12663706 -2200606330577 2200618994284 -75893 12574487 -2200619001335 671614 2200605679482 -141 141 12650239 -12574346 12650228 -12650228 12650232 -12650232 -12650229 12650370 -12650240 12650240 -12663479 -2200606449713 2200606449722 12578146 -961038 -12616833 12616834 -2200619066547 12663467 -198991 -12464477 12638658 -60511 247419 -247418 -12663467 12616848 -38702 85322 207553 -406545 -847000 960670 -113670 -174181 113670 -198990 -2200618795291 -1045993 -11617476 12663470 -2200618994284 2200618994285 12574346 1525991 2200604825105 -75883 75882 -12650216 12650218 -12650220 -11 12650231 -13242 -2200606449723 2200606449731 12578137 38687 -999725 -11617099 12616825 -12616824 -2200606449731 12464479 198979 -12663459 12578138 60511 -1021547 -12663458 12616839 -406535 -847010 847011 113659 -113660 174171 -1021181 -198979 -2200618795302 -11617467 12663461 -12663461 -2200606330823 2200618994292 12574334 701909 2200605649199 12650227 -12650456 12650458 -12650460 12650468 240 -240 241 12650219 -12650468 -12509 -2200606450215 2200606450224 12577645 -11616607 12616332 12662965 -198937 -12464029 -12662966 12616347 -406492 -847053 847054 113616 -113617 174128 -198936 -2200618795345 -11616974 12662968 12574574 1097716 2200605253152 12650467 -12649556 12649556 12649557 -12649568 -900 12650459 -13218 -2200606450407 2200606450415 12577445 -12577454 12616141 -11616415 12616140 12662773 -198840 174030 -12637964 12577453 -12662774 12616155 -406395 -847150 847151 113519 -113520 174031 847150 113520 -2200618795441 -11616782 12662776 12573674 75893 1220166 2200605131602 12649567 -12649564 12573670 -12573670 12573671 75886 -12649558 12649559 12649562 -12649563 12649564 -12649567 12649561 12649565 -13239 -2200606450399 2200606450407 12577471 -12577472 12616159 -11616434 12616158 -2200619066557 12463964 198830 -24811 -12637983 12577472 247418 -247417 -12662794 12616173 85323 207552 -406384 -847161 847162 113508 -113509 174020 847161 113509 2200618999707 -198830 -2200618795452 -85323 85324 -1045994 -11616801 -2200606331489 2200618994286 -12662797 12662798 -85329 85331 12969455 -2200619433102 2200606463646 12897300 -247745 -12649555 12649555 -46622 294366 -40194 -207550 247743 -247743 -12663909 12983801 -1347843 72465750786 319898 -12969454 319899 -518731 518731 -518732 -2200618916999 2200619115826 -198827 -2200618795451 2200619314177 -12969455 -12662786 12982685 -1347840 1027940 -13233 12982688 -2200619435723 2200619435724 -2200619435724 2200619435727 -518726 198832 -2200619001326 2200618976515 24812 -2200618998292 2200618998293 319894 -319897 -12649557 -1027949 72464722843 -72464722843 72465750787 -85325 85333 319892 13239 -13230 -319889 -1027950 942619 495341 -2200618925442 -3739760500 3739760500 -10503296 -85360 -288223780699032070 18884043 -18873441 18873439 18873441 -1466015488693 288225246706138116 -2200619034176 2200619034201 -1642 -495341 815231 -2200606331488 2200618994291 319890 -13238 -2200606450398 2200619433091 247738 -294366 254172 -12857106 12602934 292875 -207545 -1046000 1046001 -2200618994291 2200606330382 12663909 -12465069 12465069 -2200618916978 2200619115818 12465068 174018 -174017 24817 -85330 85330 1046000 85334 -1046371 -2200617953419 2200618999786 -2200618999786 2200618914455 85335 -2200617953418 2200618999785 -2200618999785 2200618999789 -85358 -288223780680148023 -1466015488731 18873444 -1466015472697 -62 1466015472754 -1466015488736 18873448 -1466015472736 -1466015472748 1466015472752 -1466015472757 1465996485603 7351 1466015472750 -1466015472760 64 1466015472694 -15990 -1466015490745 1466015490744 -1466015490744 -315 1466015491063 -1466015488734 -1465996617613 1466015491056 -1466015488701 1466015488701 -1466015490742 -316 1466015491064 -2328 1465996617613 -2014 1465996617299 18873445 -18873447 -1466015472731 1466015472735 8662 -11521 11521 -8653 -2867 3309 -3322 3322 -698 1466015481639 -1466015488679 1466015488679 -1466015472756 15985 -1466015472739 12722 -13508 -2473 -15372 6730 80 -4943 -15381 1875 4864 78 8580 -1465996599296 -15395 6752 -4863 4942 -6861 15425 -8643 77 -4941 -1934 15441 76 -4940 13521 8640 -13517 13516 -13520 -2470 -15493 15493 8644 1466015472680 1466015472744 -1466015472680 1466015472674 -1466015472674 -17876 2323 -2318 1851 -1851 2318 8703 -15554 -466 15960 60 -17875 1830 2457 -1183 1183 13505 58 17817 -15962 7069 8893 -59 57 -16047 18873433 -1466015490546 1466015490549 -1466015491051 2330 18873430 -1466015488688 1466015488688 -1466015488715 -1465996617113 1466015490545 -18873434 -1465996599297 56 -17874 17818 -15991 18873436 -1466015488764 43 18873431 -1466015491020 1466015491048 -1466015491017 -26 1466015491049 -1466015488720 -1465996615258 1466015488686 -1466015488713 -1465996617587 18873429 -1466015488714 -2302 1465996617587 1466015491017 -18873432 18873437 -18873437 -1466015472728 -8706 -9167 17822 47 -18061 2041 -2041 18014 16015 -42 -15974 15973 -17857 17857 -1834 17808 -51 -1465996485592 1466015472729 1466015472742 -1466015472677 1466015472677 1466015488480 -1466015481390 -1466015481380 1466015481382 -1466015488726 -1466015488733 -1466015472694 -50 49 1466015472693 1466015472696 -1466015472692 -15971 -3266 -15458 15503 -13552 13507 -15362 15407 -15985 1466015488676 -1466015472754 -619 1465996501588 -1465996485532 -57 -8660 -7095 15738 -8562 -86 -4858 4866 1466015481398 -1466015472693 -47 1466015472737 -1466015472681 -16052 -1465996599233 1466015472685 -16053 1466015481312 -1466015486255 583 1465996614702 -1465996599263 -13550 -2472 553 13506 -1465996485587 -13523 537 1465996614748 -13551 -2471 -13525 1465996485592 -1465996485545 1466015472675 1466015472672 24 -22 1465996501585 -1465996501341 -2840 8664 1465996494242 -15993 1465996501582 113703 -1465996605114 -10157 2477 1465996499092 -1465996485543 1466015472650 -1466015472656 1466015472652 -18987111 -1465996485531 1465996485541 -1465996615236 288225246706138101 -2200629620921 2200619034160 1644 338392 -338391 -495324 -12965419 -2200606451211 2200606451211 -2200619128879 2200618891871 -288223780680062695 288223780680299703 -151654 10501130 2200618970746 -2200619084983 2200619236657 237011 151654 -10501131 -2200618970745 85365 -288223780680148059 -18873409 18873408 -18987108 18987111 -18987114 18987114 -1466015488661 1465996555184 288223780709582931 -2200619034178 2200619034203 -331693 -85354 -288223780680062692 288223780680148048 85352 -85353 85354 -331690 -12633720 -2200606360573 2200619325984 -331699 331697 -12965416 12965416 -2200619416882 2200619416883 -12965413 8270980 -8270981 12633726 -2200619085192 2200619085187 331698 -12965417 12633718 -12633718 -2200606451210 10501140 -10501140 -2200618970736 2200618970737 151666 20 -151687 151661 -151681 151668 -151664 81278 -2200619210202 2200619210204 2200619318060 -307732 74787 151669 -151680 151682 -151683 151670 -151668 -151663 151664 2200619128896 56247 -207906 151680 -2200619152590 2200619152583 -2200619128876 -23942 -14868626 -10002734 -4865892 4865884 -500566 500573 -500576 -2200618958626 2200614593298 14868639 -14868639 -10004407 -4864232 4864264 -498935 -3744125275 3744125274 -4365331 4365332 498926 1648 -500577 500576 -348910 2200619477789 -500574 348905 -348888 348887 -2200619153414 2200619153414 -151684 151689 348886 -348913 348908 -2200619477790 2200619128899 -2200619152584 2200619152604 -151682 -2200619001731 2200619001733 151681 500569 -500573 500574 -348905 -288225246695620697 288225246695620689 -348885 -2200619501495 2200619152588 -2200619152562 2200619152553 -2200619152589 2200619000916 151671 -500578 151688 348888 348885 -348892 348889 -348887 -151671 -151669 -2200619153408 2200619153407 -2200619153210 -10350029 10501711 10350029 -2200629502673 2200619001529 -2200619001528 -1426 2200629503445 -10350038 -10501710 10501710 10501708 -10501708 246623 12718793 -1442678 -11522738 12633711 -288223780680148061 -1465996485542 1465996485539 -1465996485529 -1466015472642 1466015472653 -1465996485538 -16022 288225246706138128 -2200629620939 2200619034178 -288223780680062693 288223780680062718 -338393 -319887 319886 -198838 518726 -2200619314180 2200619314179 12662793 319893 1027950 -85332 85332 -1643 -11804 11804 -331691 -12633719 12965411 -2200619325984 2200618994290 -198843 -12434881 331691 -4694436 -8270980 12608900 356517 -331692 331692 2200618994288 319891 85321 -319891 -198834 -319898 -1027945 1027946 -2200619435722 2200619360950 74772 -518728 174019 -174020 -2200619115833 2200619115830 319895 -518730 198822 -198822 -3743918669 3743918669 198823 -3744117492 3744117492 -198829 198831 -3744117495 3744117496 -3744117498 3744117495 3743918670 -3743918670 -2196874998320 2196874998320 -198832 198834 245122 -245128 245123 -3744362622 3744117499 319897 319896 366535 -1347844 -2200617940030 2200618967973 -12662792 46619 319900 1347844 -2200606463647 -247746 -1108 12465071 -12463963 12662792 -12982693 -2200606305179 2200617940029 981309 -2200618921339 2200606305181 366520 11621610 -11621611 2200619360947 -12662796 198833 331694 -2200619416880 2200619085189 245116 -245126 -85350 85348 -85348 330474 245126 -245124 -47233 -2200619068277 2200619068277 -3744070266 331699 2200619085181 378935 2200619128885 -10501145 -2200618970732 2200618970732 151685 -151690 -81268 -2200619128936 2200619128944 -226474 -2200619010328 2200619236797 -151686 151674 -151685 500577 -1649 -2200619500082 2200619152818 -3744269159 3744618069 -3744618069 3744618068 -1648 -347264 348913 -348908 -2200619128882 348909 -348901 151686 -2200619152588 -2200619152598 2200619152587 -2200619152551 2200619501456 -348889 348891 -151692 151675 151687 -151691 -2200618970731 2200618970731 -47230 47233 -47234 3744070266 47230 245127 -245123 2200618921339 -12616158 2200619113207 247740 -247739 -12662799 198837 -417021 405218 -12953613 12953612 -405217 -12564238 12662805 -12649566 12649568 -12662798 -319890 1359645 -12718793 -246623 12633723 -12387100 -246614 12965407 -331694 -1110983 1110987 85329 -85357 85360 -288223780699135171 -1465996485528 18873409 -1466015472700 63 -75 1465996485608 18987130 -1466015488717 -1466015488719 18873432 -1466015488725 -1466015488721 1466015488727 -18873442 18873440 -1466015488732 -1466015472679 -56 -1466015472758 1465996485591 -1465996485591 1465996485589 -1465996485585 -1465996491411 1465996491410 7360 15999 -15755 15755 -8665 -7320 3251 -3254 3254 12734 -1465996494250 1465996494252 1465996501583 113702 27 1868 8034 364 1465996614921 -1465996607954 -1465996488774 -15987 1465996604897 -2200629620940 2200619034179 83691 1643 -1645 833734 -352958 -340034 351315 -352954 321530 12662797 -405246 10586485 -10501129 405219 1347843 12662799 121545 2200618994289 -198842 2200619115835 -2200619321217 2200619001627 10503348 -2200629502665 2200629502451 -1440 -565 -2200629502660 2200629504666 -10503136 -2200618999266 2200618999265 -1027951 1027951 -72465750795 72465750796 -288223780680148018 -1466015472695 -63 -15925 1465996554819 177 -1465996539072 1465996538864 18880257 -1466015472759 1465996538899 60410 -60445 144 -1465996538832 -64 1465996538930 75 -1465996539070 1465996538962 -1465996538897 1465996538833 18933797 -18933798 -18933859 18933860 -18873450 -15989 208 -1465996539007 1465996538834 53603 6807 -53432 1465996538866 -1465996538930 -1465996539005 1465996538961 1465996538897 18933796 18933858 -18873448 1466015480103 -18987155 -12762 4420 1465996550399 -1465996550576 1465996550403 -1465996604618 1465996550980 1466015484875 18933861 -1466015475925 1465996488772 -1465996491413 1465996491414 -2200619034160 2200619034185 -288223780667514286 288223780680062652 237008 -10501130 -2200618970746 -2200619236657 2200619236640 81266 -81260 -2200618977268 2200618902470 2200619236800 -2200619152587 -500565 -348886 
Potential of Offsets elements: 28.1255 43.1255 28.1255 28.1255 28.1255 28.1255 28.1255 28.1255 1013.13 1367.13 1174.13 28.1255 275.126 363.126 28.1255 28.1255 28.1255 28.1255 778.126 28.1255 29.1255 28.1255 28.1255 28.1255 28.1255 28.1255 1012.13 318.6 189.126 28.1255 30.1255 28.1255 28.1255 947.126 300.126 28.1255 210.126 28.1255 28.1255 28.1255 28.1255 28.1255 28.1255 28.1255 28.1255 28.1255 928.126 113.126 194.126 28.1255 28.1255 28.1255 28.1255 28.1255 28.1255 28.1255 28.1255 242.126 28.1255 28.1255 28.1255 28.1255 28.1255 28.1255 28.1255 28.1255 28.1255 28.1255 536.126 28.1255 28.1255 28.1255 28.1255 28.1255 28.1255 28.1255 28.1255 28.1255 28.1255 28.1255 135.126 28.1255 28.1255 28.1255 28.1255 28.1255 28.1255 245.126 28.1255 28.1255 43.1255 28.1255 28.1255 28.1255 28.1255 34.1255 28.1255 28.1255 310.126 28.1255 337.126 28.1255 28.1255 28.1255 28.1255 28.1255 28.1255 28.1255 28.1255 28.1255 181.126 191.126 301.126 373.126 380.126 28.1255 28.1255 28.1255 28.1255 28.1255 28.1255 28.1255 28.1255 28.1255 28.1255 28.1255 28.1255 28.1255 28.1255 28.1255 1333.13 28.1255 28.1255 28.1255 40.1255 28.1255 28.1255 28.1255 28.1255 28.1255 28.1255 28.1255 28.1255 28.1255 28.1255 45.1255 28.1255 28.1255 28.1255 28.1255 28.1255 28.1255 28.1255 28.1255 28.1255 28.1255 591.126 28.1255 28.1255 28.1255 28.1255 28.1255 28.1255 28.1255 28.1255 28.1255 28.1255 69.1255 28.1255 28.1255 28.1255 28.1255 58.1255 28.1255 28.1255 28.1255 28.1255 28.1255 48.1255 28.1255 28.1255 28.1255 28.1255 28.1255 28.1255 28.1255 28.1255 28.1255 28.1255 114.126 73.1255 28.1255 28.1255 28.1255 28.1255 28.1255 28.1255 28.1255 28.1255 28.1255 71.1255 28.1255 28.1255 28.1255 28.1255 782.126 28.1255 28.1255 28.1255 28.1255 28.1255 28.1255 34.1255 28.1255 28.1255 28.1255 28.1255 28.1255 28.1255 28.1255 28.1255 28.1255 28.1255 37.1255 28.1255 28.1255 28.1255 28.1255 28.1255 28.1255 33.1255 28.1255 28.1255 45.1255 28.1255 28.1255 28.1255 28.1255 28.1255 413.126 28.1255 28.1255 28.1255 252.126 28.1255 29.1255 28.1255 571.126 28.1255 28.1255 28.1255 28.1255 28.1255 28.1255 28.1255 28.1255 92.1255 28.1255 28.1255 28.1255 28.1255 28.1255 31.1255 28.1255 28.1255 28.1255 763.126 28.1255 28.1255 28.1255 28.1255 28.1255 28.1255 28.1255 28.1255 28.1255 85.1255 28.1255 56.1255 28.1255 28.1255 28.1255 28.1255 28.1255 28.1255 28.1255 28.1255 73.1255 28.1255 80.1255 28.1255 28.1255 28.1255 44.1255 28.1255 28.1255 28.1255 28.1255 28.1255 28.1255 28.1255 28.1255 28.1255 28.1255 28.1255 28.1255 711.126 28.1255 28.1255 247.126 28.1255 28.1255 28.1255 28.1255 28.1255 28.1255 28.1255 28.1255 28.1255 157.126 28.1255 28.1255 60.1255 34.1255 44.1255 28.1255 44.1255 28.1255 28.1255 28.1255 28.1255 28.1255 28.1255 28.1255 28.1255 32.1255 28.1255 28.1255 58.1255 28.1255 28.1255 28.1255 28.1255 28.1255 28.1255 28.1255 28.1255 28.1255 28.1255 62.1255 28.1255 28.1255 28.1255 28.1255 28.1255 28.1255 28.1255 28.1255 28.1255 28.1255 28.1255 28.1255 28.1255 28.1255 29.1255 28.1255 28.1255 28.1255 28.1255 28.1255 28.1255 28.1255 28.1255 28.1255 83.1255 28.1255 28.1255 28.1255 104.126 28.1255 28.1255 28.1255 28.1255 28.1255 28.1255 28.1255 28.1255 28.1255 28.1255 28.1255 28.1255 28.1255 28.1255 28.1255 28.1255 28.1255 40.1255 28.1255 28.1255 29.1255 472.126 28.1255 28.1255 28.1255 28.1255 28.1255 28.1255 28.1255 28.1255 28.1255 28.1255 28.1255 28.1255 28.1255 28.1255 28.1255 88.1255 28.1255 29.1255 28.1255 28.1255 28.1255 28.1255 28.1255 28.1255 28.1255 28.1255 28.1255 28.1255 28.1255 28.1255 28.1255 28.1255 28.1255 28.1255 28.1255 32.1255 28.1255 28.1255 140.126 52.1255 33.1255 28.1255 205.126 238.126 811.126 28.1255 28.1255 28.1255 28.1255 28.1255 28.1255 28.1255 28.1255 28.1255 34.1255 28.1255 28.1255 28.1255 28.1255 28.1255 28.1255 28.1255 28.1255 28.1255 28.1255 28.1255 28.1255 28.1255 28.1255 28.1255 28.1255 28.1255 28.1255 28.1255 319.126 28.1255 28.1255 302.126 158.126 28.1255 28.1255 28.1255 28.1255 30.1255 28.1255 28.1255 28.1255 55.1255 28.1255 28.1255 28.1255 28.1255 28.1255 28.1255 28.1255 28.1255 28.1255 28.1255 28.1255 28.1255 28.1255 28.1255 28.1255 28.1255 28.1255 28.1255 28.1255 28.1255 28.1255 37.1255 32.1255 28.1255 28.1255 28.1255 28.1255 29.1255 28.1255 28.1255 33.1255 28.1255 32.1255 36.1255 28.1255 28.1255 28.1255 28.1255 28.1255 28.1255 28.1255 28.1255 28.1255 183.126 28.1255 28.1255 28.1255 28.1255 28.1255 28.1255 28.1255 28.1255 28.1255 28.1255 28.1255 28.1255 28.1255 28.1255 28.1255 28.1255 28.1255 28.1255 28.1255 28.1255 28.1255 56.1255 28.1255 28.1255 28.1255 28.1255 38.1255 28.1255 31.1255 28.1255 28.1255 28.1255 44.1255 28.1255 28.1255 28.1255 28.1255 28.1255 28.1255 33.1255 28.1255 28.1255 28.1255 28.1255 72.1255 28.1255 28.1255 28.1255 28.1255 28.1255 28.1255 28.1255 28.1255 41.1255 28.1255 28.1255 28.1255 28.1255 28.1255 28.1255 28.1255 28.1255 28.1255 28.1255 28.1255 39.1255 484.126 28.1255 28.1255 431.126 42.1255 28.1255 28.1255 28.1255 28.1255 28.1255 28.1255 118.126 28.1255 28.1255 28.1255 28.1255 28.1255 28.1255 28.1255 28.1255 28.1255 28.1255 28.1255 28.1255 28.1255 28.1255 28.1255 224.126 28.1255 28.1255 76.1255 28.1255 30.1255 99.1255 28.1255 28.1255 28.1255 28.1255 28.1255 28.1255 28.1255 28.1255 28.1255 52.1255 522.126 28.1255 28.1255 376.126 28.1255 28.1255 28.1255 28.1255 28.1255 28.1255 108.126 412.126 28.1255 28.1255 28.1255 28.1255 28.1255 28.1255 28.1255 28.1255 28.1255 40.1255 481.126 28.1255 28.1255 28.1255 37.1255 28.1255 28.1255 28.1255 30.1255 28.1255 28.1255 31.1255 28.1255 28.1255 244.126 69.1255 28.1255 28.1255 28.1255 28.1255 28.1255 28.1255 212.126 28.1255 28.1255 28.1255 28.1255 28.1255 40.1255 28.1255 28.1255 28.1255 31.1255 270.126 36.1255 28.1255 28.1255 84.1255 28.1255 40.1255 28.1255 28.1255 28.1255 28.1255 28.1255 28.1255 28.1255 28.1255 28.1255 28.1255 30.1255 28.1255 28.1255 28.1255 29.1255 157.126 37.1255 28.1255 28.1255 28.1255 28.1255 29.1255 28.1255 28.1255 28.1255 28.1255 44.1255 28.1255 28.1255 28.1255 28.1255 28.1255 28.1255 28.1255 28.1255 28.1255 28.1255 509.126 28.1255 28.1255 340.126 28.1255 28.1255 40.1255 28.1255 28.1255 28.1255 28.1255 373.126 28.1255 28.1255 28.1255 42.1255 28.1255 28.1255 28.1255 28.1255 28.1255 28.1255 28.1255 28.1255 28.1255 28.1255 46.1255 28.1255 28.1255 28.1255 28.1255 28.1255 28.1255 40.1255 28.1255 28.1255 28.1255 252.126 28.1255 28.1255 63.1255 28.1255 28.1255 28.1255 58.1255 28.1255 28.1255 28.1255 28.1255 28.1255 30.1255 28.1255 28.1255 28.1255 28.1255 28.1255 88.1255 28.1255 28.1255 106.126 28.1255 28.1255 36.1255 28.1255 28.1255 28.1255 28.1255 32.1255 28.1255 64.1255 28.1255 28.1255 67.1255 28.1255 28.1255 28.1255 28.1255 38.1255 30.1255 28.1255 108.126 28.1255 28.1255 28.1255 94.1255 28.1255 28.1255 28.1255 28.1255 41.1255 28.1255 148.126 210.126 28.1255 44.1255 28.1255 28.1255 28.1255 28.1255 28.1255 29.1255 28.1255 28.1255 28.1255 28.1255 28.1255 28.1255 28.1255 28.1255 28.1255 28.1255 31.1255 28.1255 80.1255 40.1255 28.1255 28.1255 28.1255 28.1255 28.1255 28.1255 28.1255 40.1255 28.1255 54.1255 36.1255 28.1255 31.1255 28.1255 28.1255 28.1255 28.1255 28.1255 100.126 59.1255 28.1255 28.1255 28.1255 28.1255 28.1255 28.1255 28.1255 28.1255 28.1255 30.1255 28.1255 28.1255 28.1255 28.1255 28.1255 28.1255 28.1255 28.1255 28.1255 28.1255 31.1255 28.1255 28.1255 28.1255 28.1255 28.1255 28.1255 28.1255 28.1255 28.1255 28.1255 159.126 28.1255 28.1255 28.1255 28.1255 28.1255 30.1255 28.1255 28.1255 28.1255 28.1255 73.1255 28.1255 50.1255 28.1255 50.1255 28.1255 37.1255 28.1255 28.1255 28.1255 28.1255 40.1255 28.1255 28.1255 28.1255 28.1255 28.1255 28.1255 28.1255 28.1255 28.1255 28.1255 43.1255 53.1255 34.1255 28.1255 28.1255 28.1255 28.1255 28.1255 28.1255 28.1255 28.1255 35.1255 96.1255 28.1255 28.1255 28.1255 54.1255 28.1255 28.1255 28.1255 28.1255 28.1255 36.1255 33.1255 28.1255 28.1255 28.1255 28.1255 28.1255 28.1255 28.1255 28.1255 28.1255 28.1255 169.126 28.1255 28.1255 28.1255 28.1255 28.1255 28.1255 28.1255 28.1255 28.1255 29.1255 332.126 28.1255 28.1255 28.1255 28.1255 28.1255 28.1255 28.1255 28.1255 28.1255 41.1255 158.126 28.1255 28.1255 28.1255 28.1255 28.1255 28.1255 28.1255 28.1255 28.1255 28.1255 511.126 80.1255 28.1255 28.1255 28.1255 28.1255 28.1255 28.1255 28.1255 28.1255 28.1255 1752.12 28.1255 28.1255 28.1255 28.1255 28.1255 28.1255 28.1255 28.1255 28.1255 28.1255 48.1255 28.1255 28.1255 28.1255 28.1255 28.1255 28.1255 28.1255 28.1255 28.1255 28.1255 92.1255 28.1255 28.1255 28.1255 28.1255 28.1255 28.1255 28.1255 28.1255 28.1255 28.1255 325.126 28.1255 28.1255 28.1255 28.1255 28.1255 28.1255 28.1255 28.1255 33.1255 28.1255 55.1255 28.1255 28.1255 28.1255 28.1255 28.1255 28.1255 28.1255 28.1255 28.1255 28.1255 65.1255 28.1255 28.1255 28.1255 28.1255 28.1255 28.1255 28.1255 28.1255 28.1255 28.1255 48.1255 28.1255 28.1255 28.1255 28.1255 28.1255 28.1255 28.1255 28.1255 28.1255 28.1255 283.126 28.1255 28.1255 28.1255 28.1255 28.1255 28.1255 28.1255 28.1255 28.1255 28.1255 52.1255 28.1255 28.1255 28.1255 28.1255 28.1255 28.1255 28.1255 28.1255 28.1255 28.1255 80.1255 28.1255 28.1255 28.1255 28.1255 28.1255 28.1255 28.1255 28.1255 28.1255 28.1255 148.126 28.1255 28.1255 28.1255 28.1255 28.1255 28.1255 28.1255 28.1255 28.1255 50.1255 505.126 28.1255 28.1255 40.1255 28.1255 28.1255 28.1255 28.1255 28.1255 28.1255 28.1255 146.126 28.1255 28.1255 34.1255 28.1255 28.1255 28.1255 28.1255 28.1255 28.1255 28.1255 84.1255 28.1255 31.1255 28.1255 28.1255 28.1255 28.1255 28.1255 28.1255 28.1255 433.126 163.126 28.1255 28.1255 28.1255 28.1255 28.1255 28.1255 48.1255 28.1255 28.1255 28.1255 28.1255 28.1255 44.1255 60.1255 36.1255 28.1255 28.1255 28.1255 28.1255 28.1255 46.1255 67.1255 28.1255 28.1255 33.1255 28.1255 28.1255 28.1255 28.1255 28.1255 28.1255 36.1255 30.1255 28.1255 28.1255 28.1255 28.1255 28.1255 28.1255 28.1255 28.1255 28.1255 28.1255 28.1255 28.1255 28.1255 28.1255 28.1255 28.1255 28.1255 28.1255 28.1255 28.1255 28.1255 28.1255 28.1255 28.1255 28.1255 28.1255 28.1255 28.1255 28.1255 28.1255 28.1255 28.1255 40.1255 28.1255 28.1255 28.1255 28.1255 30.1255 28.1255 28.1255 28.1255 95.1255 28.1255 28.1255 28.1255 28.1255 28.1255 28.1255 29.1255 28.1255 28.1255 38.1255 28.1255 28.1255 28.1255 28.1255 28.1255 28.1255 44.1255 28.1255 28.1255 28.1255 28.1255 28.1255 28.1255 28.1255 28.1255 28.1255 106.126 48.1255 34.1255 28.1255 32.1255 30.1255 28.1255 28.1255 28.1255 28.1255 28.1255 28.1255 162.126 60.1255 28.1255 45.1255 28.1255 28.1255 28.1255 28.1255 28.1255 28.1255 28.1255 28.1255 50.1255 28.1255 37.1255 111.126 28.1255 28.1255 28.1255 79.1255 161.126 28.1255 28.1255 452.126 58.1255 28.1255 210.126 28.1255 28.1255 28.1255 102.126 79.1255 28.1255 28.1255 100.126 28.1255 28.1255 29.1255 28.1255 28.1255 28.1255 28.1255 32.1255 28.1255 28.1255 54.1255 28.1255 28.1255 28.1255 28.1255 28.1255 28.1255 28.1255 98.1255 28.1255 30.1255 37.1255 28.1255 28.1255 28.1255 28.1255 28.1255 28.1255 28.1255 28.1255 28.1255 46.1255 92.1255 28.1255 50.1255 28.1255 28.1255 28.1255 28.1255 28.1255 35.1255 28.1255 40.1255 31.1255 28.1255 28.1255 28.1255 28.1255 28.1255 28.1255 28.1255 28.1255 28.1255 40.1255 38.1255 28.1255 28.1255 28.1255 28.1255 28.1255 28.1255 28.1255 70.1255 28.1255 92.1255 42.1255 28.1255 28.1255 28.1255 28.1255 28.1255 28.1255 28.1255 28.1255 28.1255 55.1255 28.1255 28.1255 28.1255 28.1255 28.1255 28.1255 28.1255 28.1255 28.1255 28.1255 121.126 28.1255 28.1255 28.1255 28.1255 28.1255 38.1255 28.1255 28.1255 28.1255 28.1255 127.126 51.1255 28.1255 48.1255 28.1255 28.1255 28.1255 28.1255 28.1255 28.1255 28.1255 163.126 28.1255 28.1255 48.1255 28.1255 30.1255 28.1255 28.1255 139.126 28.1255 28.1255 120.126 28.1255 28.1255 28.1255 28.1255 91.1255 28.1255 28.1255 56.1255 28.1255 28.1255 844.126 28.1255 37.1255 28.1255 28.1255 28.1255 28.1255 28.1255 28.1255 28.1255 37.1255 55.1255 28.1255 45.1255 28.1255 28.1255 28.1255 28.1255 28.1255 28.1255 28.1255 38.1255 35.1255 28.1255 28.1255 28.1255 28.1255 28.1255 28.1255 186.126 28.1255 28.1255 44.1255 51.1255 28.1255 34.1255 28.1255 28.1255 28.1255 65.1255 34.1255 40.1255 28.1255 48.1255 44.1255 28.1255 28.1255 28.1255 28.1255 28.1255 28.1255 28.1255 32.1255 28.1255 153.126 34.1255 28.1255 28.1255 31.1255 28.1255 28.1255 46.1255 39.1255 54.1255 28.1255 32.1255 43.1255 28.1255 73.1255 28.1255 28.1255 28.1255 28.1255 28.1255 28.1255 28.1255 41.1255 41.1255 28.1255 28.1255 28.1255 28.1255 28.1255 74.1255 36.1255 28.1255 28.1255 61.1255 37.1255 28.1255 28.1255 28.1255 28.1255 28.1255 28.1255 43.1255 28.1255 28.1255 28.1255 28.1255 28.1255 28.1255 28.1255 28.1255 28.1255 28.1255 28.1255 28.1255 28.1255 28.1255 74.1255 43.1255 32.1255 28.1255 28.1255 28.1255 28.1255 28.1255 28.1255 28.1255 28.1255 40.1255 44.1255 28.1255 28.1255 28.1255 28.1255 28.1255 28.1255 28.1255 28.1255 28.1255 68.1255 37.1255 40.1255 28.1255 28.1255 28.1255 34.1255 28.1255 28.1255 28.1255 28.1255 49.1255 28.1255 28.1255 28.1255 28.1255 28.1255 28.1255 28.1255 28.1255 28.1255 28.1255 142.126 31.1255 28.1255 38.1255 28.1255 48.1255 28.1255 28.1255 28.1255 28.1255 28.1255 28.1255 28.1255 28.1255 28.1255 28.1255 28.1255 28.1255 28.1255 28.1255 28.1255 28.1255 28.1255 28.1255 28.1255 28.1255 28.1255 32.1255 28.1255 28.1255 28.1255 28.1255 176.126 28.1255 28.1255 28.1255 28.1255 28.1255 28.1255 28.1255 28.1255 28.1255 28.1255 29.1255 28.1255 28.1255 28.1255 28.1255 28.1255 28.1255 28.1255 28.1255 28.1255 28.1255 31.1255 28.1255 28.1255 28.1255 28.1255 28.1255 28.1255 28.1255 28.1255 28.1255 28.1255 28.1255 28.1255 28.1255 28.1255 30.1255 28.1255 28.1255 28.1255 28.1255 28.1255 28.1255 40.1255 28.1255 28.1255 28.1255 28.1255 28.1255 28.1255 28.1255 28.1255 28.1255 28.1255 28.1255 28.1255 28.1255 28.1255 28.1255 28.1255 28.1255 28.1255 28.1255 28.1255 28.1255 28.1255 28.1255 28.1255 64.1255 28.1255 28.1255 28.1255 28.1255 28.1255 28.1255 28.1255 213.126 28.1255 28.1255 28.1255 28.1255 28.1255 28.1255 28.1255 28.1255 28.1255 28.1255 28.1255 28.1255 28.1255 28.1255 28.1255 28.1255 28.1255 28.1255 28.1255 28.1255 28.1255 28.1255 28.1255 28.1255 37.1255 28.1255 29.1255 28.1255 28.1255 28.1255 28.1255 28.1255 28.1255 28.1255 28.1255 28.1255 28.1255 28.1255 28.1255 28.1255 28.1255 28.1255 44.1255 44.1255 28.1255 28.1255 28.1255 28.1255 28.1255 28.1255 28.1255 28.1255 28.1255 28.1255 124.126 28.1255 28.1255 28.1255 28.1255 28.1255 28.1255 472.126 610.126 33.1255 28.1255 28.1255 28.1255 28.1255 28.1255 28.1255 28.1255 28.1255 28.1255 28.1255 28.1255 28.1255 28.1255 28.1255 28.1255 28.1255 28.1255 28.1255 28.1255 28.1255 405.126 28.1255 28.1255 104.126 28.1255 28.1255 81.1255 28.1255 28.1255 28.1255 28.1255 40.1255 28.1255 28.1255 62.1255 28.1255 28.1255 28.1255 28.1255 28.1255 28.1255 28.1255 207.126 28.1255 28.1255 535.126 28.1255 28.1255 28.1255 28.1255 28.1255 28.1255 28.1255 28.1255 28.1255 48.1255 223.126 28.1255 28.1255 28.1255 28.1255 28.1255 28.1255 28.1255 48.1255 28.1255 28.1255 28.1255 28.1255 28.1255 28.1255 28.1255 28.1255 28.1255 28.1255 28.1255 28.1255 30.1255 34.1255 28.1255 28.1255 28.1255 28.1255 28.1255 28.1255 220.126 28.1255 28.1255 36.1255 56.1255 28.1255 28.1255 28.1255 44.1255 28.1255 28.1255 28.1255 28.1255 28.1255 31.1255 48.1255 28.1255 28.1255 28.1255 28.1255 28.1255 28.1255 28.1255 28.1255 28.1255 28.1255 28.1255 28.1255 28.1255 28.1255 28.1255 28.1255 28.1255 28.1255 28.1255 30.1255 28.1255 28.1255 28.1255 28.1255 28.1255 28.1255 28.1255 28.1255 28.1255 28.1255 28.1255 28.1255 28.1255 28.1255 28.1255 28.1255 28.1255 28.1255 28.1255 28.1255 28.1255 28.1255 28.1255 28.1255 28.1255 28.1255 36.1255 28.1255 28.1255 28.1255 28.1255 28.1255 40.1255 146.126 28.1255 28.1255 28.1255 28.1255 28.1255 28.1255 32.1255 28.1255 28.1255 28.1255 28.1255 28.1255 28.1255 28.1255 28.1255 28.1255 28.1255 28.1255 28.1255 28.1255 28.1255 28.1255 28.1255 28.1255 28.1255 28.1255 28.1255 28.1255 132.126 64.1255 70.1255 28.1255 28.1255 28.1255 28.1255 28.1255 62.1255 28.1255 28.1255 28.1255 63.1255 50.1255 28.1255 45.1255 28.1255 28.1255 28.1255 44.1255 31.1255 28.1255 28.1255 28.1255 28.1255 28.1255 28.1255 28.1255 28.1255 28.1255 34.1255 262.126 28.1255 28.1255 28.1255 28.1255 28.1255 30.1255 28.1255 28.1255 28.1255 28.1255 28.1255 28.1255 28.1255 28.1255 28.1255 28.1255 108.126 28.1255 28.1255 28.1255 28.1255 30.1255 28.1255 44.1255 28.1255 31.1255 28.1255 40.1255 28.1255 28.1255 28.1255 28.1255 28.1255 28.1255 28.1255 28.1255 28.1255 154.126 30.1255 28.1255 28.1255 28.1255 28.1255 36.1255 28.1255 28.1255 28.1255 28.1255 28.1255 31.1255 28.1255 28.1255 28.1255 28.1255 28.1255 28.1255 52.1255 28.1255 28.1255 41.1255 73.1255 28.1255 28.1255 28.1255 28.1255 28.1255 28.1255 48.1255 28.1255 28.1255 28.1255 40.1255 28.1255 28.1255 28.1255 28.1255 28.1255 28.1255 28.1255 28.1255 28.1255 28.1255 58.1255 28.1255 28.1255 28.1255 28.1255 36.1255 28.1255 28.1255 28.1255 28.1255 30.1255 34.1255 28.1255 28.1255 28.1255 28.1255 31.1255 28.1255 28.1255 28.1255 28.1255 34.1255 28.1255 28.1255 28.1255 32.1255 28.1255 28.1255 28.1255 28.1255 28.1255 28.1255 28.1255 28.1255 28.1255 28.1255 68.1255 28.1255 28.1255 28.1255 28.1255 28.1255 28.1255 28.1255 28.1255 28.1255 28.1255 28.1255 28.1255 28.1255 
rewards of Offsets elements: 0 15 0 0 0 0 0 0 985 1339 1146 0 247 335 0 0 0 0 750 0 1 0 0 0 0 0 984 317 161 0 2 0 0 919 272 0 182 0 0 0 0 0 0 0 0 0 900 85 166 0 0 0 0 0 0 0 0 214 0 0 0 0 0 0 0 0 0 0 508 0 0 0 0 0 0 0 0 0 0 0 107 0 0 0 0 0 0 217 0 0 15 0 0 0 0 6 0 0 282 0 309 0 0 0 0 0 0 0 0 0 153 163 273 345 352 0 0 0 0 0 0 0 0 0 0 0 0 0 0 0 1305 0 0 0 12 0 0 0 0 0 0 0 0 0 0 17 0 0 0 0 0 0 0 0 0 0 563 0 0 0 0 0 0 0 0 0 0 41 0 0 0 0 30 0 0 0 0 0 20 0 0 0 0 0 0 0 0 0 0 86 45 0 0 0 0 0 0 0 0 0 43 0 0 0 0 754 0 0 0 0 0 0 6 0 0 0 0 0 0 0 0 0 0 9 0 0 0 0 0 0 5 0 0 17 0 0 0 0 0 385 0 0 0 224 0 1 0 543 0 0 0 0 0 0 0 0 64 0 0 0 0 0 3 0 0 0 735 0 0 0 0 0 0 0 0 0 57 0 28 0 0 0 0 0 0 0 0 45 0 52 0 0 0 16 0 0 0 0 0 0 0 0 0 0 0 0 683 0 0 219 0 0 0 0 0 0 0 0 0 129 0 0 32 6 16 0 16 0 0 0 0 0 0 0 0 4 0 0 30 0 0 0 0 0 0 0 0 0 0 34 0 0 0 0 0 0 0 0 0 0 0 0 0 0 1 0 0 0 0 0 0 0 0 0 55 0 0 0 76 0 0 0 0 0 0 0 0 0 0 0 0 0 0 0 0 0 12 0 0 1 444 0 0 0 0 0 0 0 0 0 0 0 0 0 0 0 60 0 1 0 0 0 0 0 0 0 0 0 0 0 0 0 0 0 0 0 4 0 0 112 24 5 0 177 210 783 0 0 0 0 0 0 0 0 0 6 0 0 0 0 0 0 0 0 0 0 0 0 0 0 0 0 0 0 0 291 0 0 274 130 0 0 0 0 2 0 0 0 27 0 0 0 0 0 0 0 0 0 0 0 0 0 0 0 0 0 0 0 0 0 9 4 0 0 0 0 1 0 0 5 0 4 8 0 0 0 0 0 0 0 0 0 155 0 0 0 0 0 0 0 0 0 0 0 0 0 0 0 0 0 0 0 0 0 28 0 0 0 0 10 0 3 0 0 0 16 0 0 0 0 0 0 5 0 0 0 0 44 0 0 0 0 0 0 0 0 13 0 0 0 0 0 0 0 0 0 0 0 11 456 0 0 403 14 0 0 0 0 0 0 90 0 0 0 0 0 0 0 0 0 0 0 0 0 0 0 196 0 0 48 0 2 71 0 0 0 0 0 0 0 0 0 24 494 0 0 348 0 0 0 0 0 0 80 384 0 0 0 0 0 0 0 0 0 12 453 0 0 0 9 0 0 0 2 0 0 3 0 0 216 41 0 0 0 0 0 0 184 0 0 0 0 0 12 0 0 0 3 242 8 0 0 56 0 12 0 0 0 0 0 0 0 0 0 0 2 0 0 0 1 129 9 0 0 0 0 1 0 0 0 0 16 0 0 0 0 0 0 0 0 0 0 481 0 0 312 0 0 12 0 0 0 0 345 0 0 0 14 0 0 0 0 0 0 0 0 0 0 18 0 0 0 0 0 0 12 0 0 0 224 0 0 35 0 0 0 30 0 0 0 0 0 2 0 0 0 0 0 60 0 0 78 0 0 8 0 0 0 0 4 0 36 0 0 39 0 0 0 0 10 2 0 80 0 0 0 66 0 0 0 0 13 0 120 182 0 16 0 0 0 0 0 1 0 0 0 0 0 0 0 0 0 0 3 0 52 12 0 0 0 0 0 0 0 12 0 26 8 0 3 0 0 0 0 0 72 31 0 0 0 0 0 0 0 0 0 2 0 0 0 0 0 0 0 0 0 0 3 0 0 0 0 0 0 0 0 0 0 131 0 0 0 0 0 2 0 0 0 0 45 0 22 0 22 0 9 0 0 0 0 12 0 0 0 0 0 0 0 0 0 0 15 25 6 0 0 0 0 0 0 0 0 7 68 0 0 0 26 0 0 0 0 0 8 5 0 0 0 0 0 0 0 0 0 0 141 0 0 0 0 0 0 0 0 0 1 304 0 0 0 0 0 0 0 0 0 13 130 0 0 0 0 0 0 0 0 0 0 483 52 0 0 0 0 0 0 0 0 0 1752 0 0 0 0 0 0 0 0 0 0 20 0 0 0 0 0 0 0 0 0 0 64 0 0 0 0 0 0 0 0 0 0 297 0 0 0 0 0 0 0 0 5 0 27 0 0 0 0 0 0 0 0 0 0 37 0 0 0 0 0 0 0 0 0 0 20 0 0 0 0 0 0 0 0 0 0 255 0 0 0 0 0 0 0 0 0 0 24 0 0 0 0 0 0 0 0 0 0 52 0 0 0 0 0 0 0 0 0 0 120 0 0 0 0 0 0 0 0 0 22 477 0 0 12 0 0 0 0 0 0 0 118 0 0 6 0 0 0 0 0 0 0 56 0 3 0 0 0 0 0 0 0 405 135 0 0 0 0 0 0 20 0 0 0 0 0 16 32 8 0 0 0 0 0 18 39 0 0 5 0 0 0 0 0 0 8 2 0 0 0 0 0 0 0 0 0 0 0 0 0 0 0 0 0 0 0 0 0 0 0 0 0 0 0 0 0 0 0 0 12 0 0 0 0 2 0 0 0 67 0 0 0 0 0 0 1 0 0 10 0 0 0 0 0 0 16 0 0 0 0 0 0 0 0 0 78 20 6 0 4 2 0 0 0 0 0 0 134 32 0 17 0 0 0 0 0 0 0 0 22 0 9 83 0 0 0 51 133 0 0 424 30 0 182 0 0 0 74 51 0 0 72 0 0 1 0 0 0 0 4 0 0 26 0 0 0 0 0 0 0 70 0 2 9 0 0 0 0 0 0 0 0 0 18 64 0 22 0 0 0 0 0 7 0 12 3 0 0 0 0 0 0 0 0 0 12 10 0 0 0 0 0 0 0 42 0 64 14 0 0 0 0 0 0 0 0 0 27 0 0 0 0 0 0 0 0 0 0 93 0 0 0 0 0 10 0 0 0 0 99 23 0 20 0 0 0 0 0 0 0 135 0 0 20 0 2 0 0 111 0 0 92 0 0 0 0 63 0 0 28 0 0 816 0 9 0 0 0 0 0 0 0 9 27 0 17 0 0 0 0 0 0 0 10 7 0 0 0 0 0 0 158 0 0 16 23 0 6 0 0 0 37 6 12 0 20 16 0 0 0 0 0 0 0 4 0 125 6 0 0 3 0 0 18 11 26 0 4 15 0 45 0 0 0 0 0 0 0 13 13 0 0 0 0 0 46 8 0 0 33 9 0 0 0 0 0 0 15 0 0 0 0 0 0 0 0 0 0 0 0 0 0 46 15 4 0 0 0 0 0 0 0 0 12 16 0 0 0 0 0 0 0 0 0 40 9 12 0 0 0 6 0 0 0 0 21 0 0 0 0 0 0 0 0 0 0 114 3 0 10 0 20 0 0 0 0 0 0 0 0 0 0 0 0 0 0 0 0 0 0 0 0 0 4 0 0 0 0 148 0 0 0 0 0 0 0 0 0 0 1 0 0 0 0 0 0 0 0 0 0 3 0 0 0 0 0 0 0 0 0 0 0 0 0 0 2 0 0 0 0 0 0 12 0 0 0 0 0 0 0 0 0 0 0 0 0 0 0 0 0 0 0 0 0 0 0 0 36 0 0 0 0 0 0 0 185 0 0 0 0 0 0 0 0 0 0 0 0 0 0 0 0 0 0 0 0 0 0 0 0 9 0 1 0 0 0 0 0 0 0 0 0 0 0 0 0 0 0 16 16 0 0 0 0 0 0 0 0 0 0 96 0 0 0 0 0 0 444 582 5 0 0 0 0 0 0 0 0 0 0 0 0 0 0 0 0 0 0 0 0 377 0 0 76 0 0 53 0 0 0 0 12 0 0 34 0 0 0 0 0 0 0 179 0 0 507 0 0 0 0 0 0 0 0 0 20 195 0 0 0 0 0 0 0 20 0 0 0 0 0 0 0 0 0 0 0 0 2 6 0 0 0 0 0 0 192 0 0 8 28 0 0 0 16 0 0 0 0 0 3 20 0 0 0 0 0 0 0 0 0 0 0 0 0 0 0 0 0 0 0 2 0 0 0 0 0 0 0 0 0 0 0 0 0 0 0 0 0 0 0 0 0 0 0 0 0 0 8 0 0 0 0 0 12 118 0 0 0 0 0 0 4 0 0 0 0 0 0 0 0 0 0 0 0 0 0 0 0 0 0 0 0 0 104 36 42 0 0 0 0 0 34 0 0 0 35 22 0 17 0 0 0 16 3 0 0 0 0 0 0 0 0 0 6 234 0 0 0 0 0 2 0 0 0 0 0 0 0 0 0 0 80 0 0 0 0 2 0 16 0 3 0 12 0 0 0 0 0 0 0 0 0 126 2 0 0 0 0 8 0 0 0 0 0 3 0 0 0 0 0 0 24 0 0 13 45 0 0 0 0 0 0 20 0 0 0 12 0 0 0 0 0 0 0 0 0 0 30 0 0 0 0 8 0 0 0 0 2 6 0 0 0 0 3 0 0 0 0 6 0 0 0 4 0 0 0 0 0 0 0 0 0 0 40 0 0 0 0 0 0 0 0 0 0 0 0 0 Printing Sanity3
offset_index value2127
offset list size2127
reward size2127
potential size2127
-----------------------------------------------------------------------------------------------------------------------------------------------------------------------------------------------------

DRAM Statistics
 CHANNEL 0
 RQ ROW_BUFFER_HIT:     108591  ROW_BUFFER_MISS:     495925
 DBUS_CONGESTED:        201
 WQ ROW_BUFFER_HIT:      68941  ROW_BUFFER_MISS:     230804  FULL:          0

 AVG_CONGESTED_CYCLE: 5
 All warmup complete: 2
Channel 0 Bank busy for read cycles: 0
Channel 0 Bank busy for write cycles: 0
Channel 0
Rank 0
0banks busy for read cycles: 477880356
0banks busy for write cycles: 152780
1banks busy for read cycles: 45041477
1banks busy for write cycles: 22913287
2banks busy for read cycles: 8871761
2banks busy for write cycles: 6571559
3banks busy for read cycles: 3073262
3banks busy for write cycles: 2061390
4banks busy for read cycles: 574562
4banks busy for write cycles: 835328
5banks busy for read cycles: 196716
5banks busy for write cycles: 545463
6banks busy for read cycles: 229637
6banks busy for write cycles: 549556
7banks busy for read cycles: 429014
7banks busy for write cycles: 547419
8banks busy for read cycles: 21546
8banks busy for write cycles: 463012

CPU 0 Branch Prediction Accuracy: 99.9574% MPKI: 0.07907 Average ROB Occupancy at Mispredict: 23.983
Branch types
NOT_BRANCH: 162853564 81.4268%
BRANCH_DIRECT_JUMP: 2947353 1.47368%
BRANCH_INDIRECT: 13078897 6.53945%
BRANCH_CONDITIONAL: 11401392 5.7007%
BRANCH_DIRECT_CALL: 4056170 2.02808%
BRANCH_INDIRECT_CALL: 803174 0.401587%
BRANCH_RETURN: 4859393 2.4297%
BRANCH_OTHER: 0 0%

DRAM PAGES: 1048576
Allocated PAGES: 5644
