
*** ChampSim Multicore Out-of-Order Simulator ***

Warmup Instructions: 50000000
Simulation Instructions: 200000000
Number of CPUs: 1
LLC sets: 2048
LLC ways: 16
Off-chip DRAM Size: 4096 MB Channels: 1 Width: 64-bit Data Rate: 6400 MT/s
CPU 0 runs traces/spec2k17/srv_28.champsimtrace.xz
.xz
BTB has LRU replacement policy
ITLB has LRU replacement policy
DTLB has LRU replacement policy
STLB has LRU replacement policy
L1I has LRU replacement policy
L1D has LRU replacement policy
Initialize SRRIP state for L2C
Initialize DRRIP state for LLC
Heartbeat CPU 0 instructions: 10000001 cycles: 2807757 heartbeat IPC: 3.56156 cumulative IPC: 3.56156 (Simulation time: 0 hr 0 min 39 sec) 
Heartbeat CPU 0 instructions: 20000001 cycles: 5612651 heartbeat IPC: 3.5652 cumulative IPC: 3.56338 (Simulation time: 0 hr 1 min 20 sec) 
Heartbeat CPU 0 instructions: 30000003 cycles: 8418360 heartbeat IPC: 3.56416 cumulative IPC: 3.56364 (Simulation time: 0 hr 2 min 2 sec) 
*** Reached end of trace for Core: 0 Repeating trace: traces/spec2k17/srv_28.champsimtrace.xz
Heartbeat CPU 0 instructions: 40000003 cycles: 11220417 heartbeat IPC: 3.56881 cumulative IPC: 3.56493 (Simulation time: 0 hr 2 min 41 sec) 
Heartbeat CPU 0 instructions: 50000002 cycles: 14024342 heartbeat IPC: 3.56643 cumulative IPC: 3.56523 (Simulation time: 0 hr 3 min 21 sec) 

Warmup complete CPU 0 instructions: 50000002 cycles: 14024342 (Simulation time: 0 hr 3 min 21 sec) 

Offsets elements: 
Potential of Offsets elements: 
rewards of Offsets elements: 
Printing Sanity1
offset list size679
Offsets elements: 
Potential of Offsets elements: 
rewards of Offsets elements: 148 96 90 252 357 238 96 121 16 16 267 312 136 119 72 125 378 306 373 76 45 414 545 132 21 144 315 112 120 234 263 85 6 42 160 1859 20 1564 105 227 378 184 195 72 24 105 84 18 384 71 23 0 0 0 0 0 0 0 0 0 105 90 238 41 45 186 149 9 18 172 177 136 84 0 0 16 16 102 225 0 0 52 840 0 0 58 132 180 0 52 0 30 120 33 16 8 3 6 6 791 71 13 38 32 48 43 1 8 40 89 63 125 83 2 2 21 34 21 31 8 12 9 53 66 24 3 816 246 363 132 34 0 89 0 0 74 17 15 27 27 43 81 54 49 0 50 46 28 24 0 0 73 30 10 34 63 53 36 19 20 20 40 0 0 0 0 0 0 8 2 2 5 4 8 14 12 12 45 45 21 5 0 0 0 0 0 8 0 0 0 0 0 0 87 402 31 12 340 0 0 0 0 12 4 0 225 0 0 12 12 0 0 346 20 33 83 4 10 108 116 89 0 0 95 43 0 18 28 320 8 3 0 0 193 211 55 20 7 47 37 2 5 143 55 50 90 0 0 0 4 78 144 365 270 121 671 143 180 192 187 72 60 293 72 88 18 64 0 10 19 378 204 84 130 88 56 414 76 104 399 342 316 126 12 64 0 6 0 7 5 43 0 0 110 0 0 0 0 0 528 320 232 72 48 240 112 126 378 454 176 113 12 72 311 12 0 152 132 364 56 102 72 156 63 12 15 120 0 144 195 54 6 90 36 189 30 24 52 60 333 200 0 0 116 0 0 0 30 2 16 120 50 20 56 8 4 14 3 4 9 34 26 29 0 29 144 173 257 11 76 66 109 7 0 0 4 20 0 0 0 325 0 0 4 55 0 4 0 0 0 13 0 188 88 76 79 27 81 12 0 0 12 24 36 100 12 64 10 120 72 85 48 42 8 18 201 27 0 24 23 0 30 0 13 52 12 0 9 36 0 48 0 60 60 0 25 4 3 18 6 6 0 180 54 44 303 72 0 20 2 12 36 0 0 49 12 0 0 0 0 0 314 501 0 0 36 28 110 16 55 3 4 0 0 0 0 210 0 113 0 16 9 39 39 0 0 0 0 0 0 0 0 0 0 0 0 0 0 822 37 0 204 155 14 2 150 0 253 112 92 52 0 0 0 0 0 0 0 0 0 0 0 44 0 0 0 0 0 0 0 0 0 0 0 0 0 0 0 0 0 142 0 0 0 0 0 0 0 0 0 0 0 0 0 0 5 0 0 0 0 0 0 355 0 0 0 0 3 0 2 0 0 12 16 16 313 25 0 0 0 0 0 10 60 235 8 234 0 0 172 0 0 0 0 0 0 0 0 0 0 0 285 116 105 128 24 0 94 0 24 20 20 0 0 0 54 130 0 0 0 120 72 2 0 72 3 9 17 0 112 14 2 0 0 0 0 0 0 0 0 0 0 33 96 0 0 0 0 80 11 28 0 16 0 0 10 1 9 0 192 20 0 0 0 0 0 102 120 46 15 0 30 0 9 36 21 0 147 205 
Printing Sanity2
Heartbeat CPU 0 instructions: 60000000 cycles: 27977581 heartbeat IPC: 0.716679 cumulative IPC: 0.716679 (Simulation time: 0 hr 4 min 16 sec) 
*** Reached end of trace for Core: 0 Repeating trace: traces/spec2k17/srv_28.champsimtrace.xz
Heartbeat CPU 0 instructions: 70000003 cycles: 42047263 heartbeat IPC: 0.710748 cumulative IPC: 0.713701 (Simulation time: 0 hr 5 min 13 sec) 
Heartbeat CPU 0 instructions: 80000000 cycles: 56030719 heartbeat IPC: 0.715131 cumulative IPC: 0.714177 (Simulation time: 0 hr 6 min 12 sec) 
Heartbeat CPU 0 instructions: 90000001 cycles: 69877376 heartbeat IPC: 0.722196 cumulative IPC: 0.716165 (Simulation time: 0 hr 7 min 9 sec) 
*** Reached end of trace for Core: 0 Repeating trace: traces/spec2k17/srv_28.champsimtrace.xz
Heartbeat CPU 0 instructions: 100000000 cycles: 83979846 heartbeat IPC: 0.709096 cumulative IPC: 0.71474 (Simulation time: 0 hr 8 min 6 sec) 
Heartbeat CPU 0 instructions: 110000000 cycles: 97719344 heartbeat IPC: 0.727829 cumulative IPC: 0.716889 (Simulation time: 0 hr 9 min 3 sec) 
Heartbeat CPU 0 instructions: 120000001 cycles: 111757410 heartbeat IPC: 0.712349 cumulative IPC: 0.716237 (Simulation time: 0 hr 9 min 59 sec) 
*** Reached end of trace for Core: 0 Repeating trace: traces/spec2k17/srv_28.champsimtrace.xz
Heartbeat CPU 0 instructions: 130000000 cycles: 125720255 heartbeat IPC: 0.716186 cumulative IPC: 0.71623 (Simulation time: 0 hr 10 min 51 sec) 
Heartbeat CPU 0 instructions: 140000001 cycles: 139450015 heartbeat IPC: 0.728345 cumulative IPC: 0.717556 (Simulation time: 0 hr 11 min 49 sec) 
Heartbeat CPU 0 instructions: 150000001 cycles: 153625327 heartbeat IPC: 0.705452 cumulative IPC: 0.716327 (Simulation time: 0 hr 12 min 46 sec) 
*** Reached end of trace for Core: 0 Repeating trace: traces/spec2k17/srv_28.champsimtrace.xz
Heartbeat CPU 0 instructions: 160000000 cycles: 167611923 heartbeat IPC: 0.71497 cumulative IPC: 0.716204 (Simulation time: 0 hr 13 min 42 sec) 
Heartbeat CPU 0 instructions: 170000003 cycles: 181312837 heartbeat IPC: 0.729879 cumulative IPC: 0.717324 (Simulation time: 0 hr 14 min 41 sec) 
Heartbeat CPU 0 instructions: 180000001 cycles: 195453075 heartbeat IPC: 0.707202 cumulative IPC: 0.716535 (Simulation time: 0 hr 15 min 38 sec) 
Heartbeat CPU 0 instructions: 190000001 cycles: 209238235 heartbeat IPC: 0.725418 cumulative IPC: 0.717162 (Simulation time: 0 hr 16 min 34 sec) 
*** Reached end of trace for Core: 0 Repeating trace: traces/spec2k17/srv_28.champsimtrace.xz
Heartbeat CPU 0 instructions: 200000000 cycles: 223159867 heartbeat IPC: 0.718307 cumulative IPC: 0.717238 (Simulation time: 0 hr 17 min 31 sec) 
Heartbeat CPU 0 instructions: 210000001 cycles: 237151843 heartbeat IPC: 0.714695 cumulative IPC: 0.717079 (Simulation time: 0 hr 18 min 26 sec) 
Heartbeat CPU 0 instructions: 220000000 cycles: 250995702 heartbeat IPC: 0.722342 cumulative IPC: 0.717386 (Simulation time: 0 hr 19 min 14 sec) 
*** Reached end of trace for Core: 0 Repeating trace: traces/spec2k17/srv_28.champsimtrace.xz
Heartbeat CPU 0 instructions: 230000001 cycles: 265017649 heartbeat IPC: 0.713168 cumulative IPC: 0.717151 (Simulation time: 0 hr 20 min 11 sec) 
Heartbeat CPU 0 instructions: 240000003 cycles: 278955434 heartbeat IPC: 0.717474 cumulative IPC: 0.717168 (Simulation time: 0 hr 21 min 7 sec) 
Heartbeat CPU 0 instructions: 250000001 cycles: 292805813 heartbeat IPC: 0.722002 cumulative IPC: 0.717408 (Simulation time: 0 hr 21 min 59 sec) 
Finished CPU 0 instructions: 200000001 cycles: 278781472 cumulative IPC: 0.717408 (Simulation time: 0 hr 21 min 59 sec) 

ChampSim completed all CPUs

Region of Interest Statistics

CPU 0 cumulative IPC: 0.717408 instructions: 200000001 cycles: 278781472
ITLB TOTAL     ACCESS:   32447545  HIT:   32341612  MISS:     105933  HIT %:    99.6735  MISS %:   0.326475   MPKI: 0.529665
ITLB LOAD TRANSLATION ACCESS:   32447545  HIT:   32341612  MISS:     105933  HIT %:    99.6735  MISS %:   0.326475   MPKI: 0.529665
ITLB PREFETCH  REQUESTED:          0  ISSUED:          0  USEFUL:          0  USELESS:          0
ITLB USEFUL LOAD PREFETCHES:          0 PREFETCH ISSUED TO LOWER LEVEL:          0  ACCURACY: -nan
ITLB TIMELY PREFETCHES:          0 LATE PREFETCHES: 0 DROPPED PREFETCHES: 0
ITLB PREFETCHES SAME FILL-ORIGIN LEVEL: 0 DIFFERENT FILL-ORIGIN LEVEL: 0
ITLB AVERAGE MISS LATENCY: 10.6988 cycles
ITLB RQ	ACCESS:   38246937	FORWARD:          0	MERGED:    5764808	TO_CACHE:   32482129

DTLB TOTAL     ACCESS:   40709610  HIT:   38911062  MISS:    1798548  HIT %:     95.582  MISS %:    4.41799   MPKI: 8.99274
DTLB LOAD TRANSLATION ACCESS:   40709610  HIT:   38911062  MISS:    1798548  HIT %:     95.582  MISS %:    4.41799   MPKI: 8.99274
DTLB PREFETCH  REQUESTED:          0  ISSUED:          0  USEFUL:          0  USELESS:          0
DTLB USEFUL LOAD PREFETCHES:          0 PREFETCH ISSUED TO LOWER LEVEL:          0  ACCURACY: -nan
DTLB TIMELY PREFETCHES:          0 LATE PREFETCHES: 0 DROPPED PREFETCHES: 0
DTLB PREFETCHES SAME FILL-ORIGIN LEVEL: 0 DIFFERENT FILL-ORIGIN LEVEL: 0
DTLB AVERAGE MISS LATENCY: 10.7279 cycles
DTLB RQ	ACCESS:   54714911	FORWARD:          0	MERGED:   13803923	TO_CACHE:   40910988

STLB TOTAL     ACCESS:    8357129  HIT:    8270149  MISS:      86980  HIT %:    98.9592  MISS %:    1.04079   MPKI: 0.4349
STLB LOAD TRANSLATION ACCESS:    1904481  HIT:    1817501  MISS:      86980  HIT %:    95.4329  MISS %:    4.56712   MPKI: 0.4349
STLB TRANSLATION FROM L1D PREFETCHER ACCESS:    6452648  HIT:    6452648  MISS:          0  HIT %:        100  MISS %:          0   MPKI: 0
STLB PREFETCH  REQUESTED:          0  ISSUED:          0  USEFUL:          0  USELESS:          0
STLB USEFUL LOAD PREFETCHES:          0 PREFETCH ISSUED TO LOWER LEVEL:          0  ACCURACY: -nan
STLB TIMELY PREFETCHES:          0 LATE PREFETCHES: 0 DROPPED PREFETCHES: 0
STLB PREFETCHES SAME FILL-ORIGIN LEVEL: 0 DIFFERENT FILL-ORIGIN LEVEL: 0
STLB AVERAGE MISS LATENCY: 37.7355 cycles
STLB RQ	ACCESS:    9236822	FORWARD:          0	MERGED:     879693	TO_CACHE:    8357129

STLB Hit, L1D data hit: 0
STLB Hit, L2C data hit: 0
STLB Hit, LLC data hit: 0
STLB Hit, LLC data miss: 0
STLB STLB hints to L2: 0
L1D TOTAL     ACCESS:   61394850  HIT:   60877301  MISS:     517549  HIT %:     99.157  MISS %:   0.842984   MPKI: 2.58774
L1D LOAD      ACCESS:   30647553  HIT:   30267189  MISS:     380364  HIT %:    98.7589  MISS %:    1.24109   MPKI: 1.90182
L1D RFO       ACCESS:   23414994  HIT:   23280669  MISS:     134325  HIT %:    99.4263  MISS %:   0.573671   MPKI: 0.671625
L1D PREFETCH  ACCESS:    7332303  HIT:    7329443  MISS:       2860  HIT %:     99.961  MISS %:  0.0390055   MPKI: 0.0143
AGUS PREFETCH L1 MISS: 0
L1D PREFETCH  REQUESTED:   14993766  ISSUED:   14993766  USEFUL:        332  USELESS:       2505
L1D USEFUL LOAD PREFETCHES:        332 PREFETCH ISSUED TO LOWER LEVEL:       2862  ACCURACY: 11.6003
L1D TIMELY PREFETCHES:        332 LATE PREFETCHES: 2 DROPPED PREFETCHES: 0
L1D PREFETCHES SAME FILL-ORIGIN LEVEL: 2862 DIFFERENT FILL-ORIGIN LEVEL: 0
L1D AVERAGE MISS LATENCY: 742.939 cycles
L1D RQ	ACCESS:   49511886	FORWARD:          0	MERGED:   18602219	TO_CACHE:   30787866
L1D WQ	ACCESS:   24183739	FORWARD:     121801	MERGED:     256694	TO_CACHE:   23927045
L1D PQ	ACCESS:    7661425	FORWARD:          0	MERGED:     329084	TO_CACHE:    7332341

L1D UNIQUE REGIONS ACCESSED: 0
L1D REGIONS CONFLICTS: 0
L1D Cross Page Prefetch Requests: 243169
L1D Same Page Prefetch Requests: 7418256
L1D ROI Sum of L1D PQ occupancy: 94339991
L1D PREFETCHES PUSHED FROM L2C: 0
L1I TOTAL     ACCESS:   38055992  HIT:   37423463  MISS:     632529  HIT %:    98.3379  MISS %:     1.6621   MPKI: 3.16264
L1I LOAD      ACCESS:   38055992  HIT:   37423463  MISS:     632529  HIT %:    98.3379  MISS %:     1.6621   MPKI: 3.16264
L1I PREFETCH  REQUESTED:          0  ISSUED:          0  USEFUL:          0  USELESS:          0
L1I USEFUL LOAD PREFETCHES:          0 PREFETCH ISSUED TO LOWER LEVEL:          0  ACCURACY: -nan
L1I TIMELY PREFETCHES:          0 LATE PREFETCHES: 0 DROPPED PREFETCHES: 0
L1I PREFETCHES SAME FILL-ORIGIN LEVEL: 0 DIFFERENT FILL-ORIGIN LEVEL: 0
L1I AVERAGE MISS LATENCY: 16.5493 cycles
L1I RQ	ACCESS:   60429992	FORWARD:          0	MERGED:   22183055	TO_CACHE:   38246937

BTB TOTAL     ACCESS:   29604974  HIT:   27951083  MISS:    1653891  HIT %:    94.4135  MISS %:    5.58653   MPKI: 8.26945
BTB BRANCH_DIRECT_JUMP	ACCESS:    2284365  HIT:    2283256  MISS:       1109
BTB BRANCH_INDIRECT	ACCESS:   12536315  HIT:   11991074  MISS:     545241
BTB BRANCH_CONDITIONAL	ACCESS:    7228322  HIT:    7226630  MISS:       1692
BTB BRANCH_DIRECT_CALL	ACCESS:    3327463  HIT:    3324379  MISS:       3084
BTB BRANCH_INDIRECT_CALL	ACCESS:     450518  HIT:     257027  MISS:     193491
BTB BRANCH_RETURN	ACCESS:    3777991  HIT:    2868717  MISS:     909274
BTB BRANCH_OTHER ACCESS:          0  HIT:          0  MISS:          0

L2C TOTAL     ACCESS:    1453230  HIT:     942770  MISS:     510460  HIT %:    64.8741  MISS %:    35.1259   MPKI: 2.5523
L2C LOAD      ACCESS:    1012767  HIT:     658332  MISS:     354435  HIT %:    65.0033  MISS %:    34.9967   MPKI: 1.77217
L2C DATA LOAD MPKI: 1.59048
L2C INSTRUCTION LOAD MPKI: 0.181695
L2C RFO       ACCESS:     134322  HIT:      10450  MISS:     123872  HIT %:    7.77981  MISS %:    92.2202   MPKI: 0.61936
L2C PREFETCH  ACCESS:       2862  HIT:       2015  MISS:        847  HIT %:    70.4053  MISS %:    29.5947   MPKI: 0.004235
AGUS PREFETCH L1 MISS: 0
L2C DATA PREFETCH MPKI: 0.004235
L2C INSTRUCTION PREFETCH MPKI: 0
L2C WRITEBACK ACCESS:     178641  HIT:     173273  MISS:       5368  HIT %:    96.9951  MISS %:    3.00491   MPKI: 0.02684
L2C LOAD TRANSLATION ACCESS:     124638  HIT:      98700  MISS:      25938  HIT %:    79.1893  MISS %:    20.8107   MPKI: 0.12969
L2C PREFETCH  REQUESTED:          0  ISSUED:          0  USEFUL:          9  USELESS:        829
L2C USEFUL LOAD PREFETCHES:          9 PREFETCH ISSUED TO LOWER LEVEL:        847  ACCURACY: 1.06257
L2C TIMELY PREFETCHES:          9 LATE PREFETCHES: 0 DROPPED PREFETCHES: 0
L2C PREFETCHES SAME FILL-ORIGIN LEVEL: 0 DIFFERENT FILL-ORIGIN LEVEL: 0
L2C AVERAGE MISS LATENCY: 113.263 cycles
L2C RQ	ACCESS:    1271854	FORWARD:          0	MERGED:          0	TO_CACHE:    1271727
L2C WQ	ACCESS:     178641	FORWARD:        127	MERGED:          0	TO_CACHE:     178641
L2C PQ	ACCESS:       2862	FORWARD:          0	MERGED:          0	TO_CACHE:       2862

L2C Instructions Evicting Data 32594
L2C Translations Evicting Data 23033
L2C Data Evicting Data 387952
L2C Instructions Evicting Instructions 1942
L2C Translations Evicting Instructions 1932
L2C Data Evicting Instructions 32422
L2C Instructions Evicting Translations 1803
L2C Translations Evicting Translations 973
L2C Data Evicting Translations 22441
L2C Dense regions hint from L2: 0
PSCL5 TOTAL     ACCESS:      86980  HIT:      86980  MISS:          0  HIT %:        100  MISS %:          0   MPKI: 0
PSCL5 LOAD TRANSLATION ACCESS:      86980  HIT:      86980  MISS:          0  HIT %:        100  MISS %:          0   MPKI: 0
PSCL5 PREFETCH  REQUESTED:          0  ISSUED:          0  USEFUL:          0  USELESS:          0
PSCL5 USEFUL LOAD PREFETCHES:          0 PREFETCH ISSUED TO LOWER LEVEL:          0  ACCURACY: -nan
PSCL5 TIMELY PREFETCHES:          0 LATE PREFETCHES: 0 DROPPED PREFETCHES: 0
PSCL5 PREFETCHES SAME FILL-ORIGIN LEVEL: 0 DIFFERENT FILL-ORIGIN LEVEL: 0

PSCL4 TOTAL     ACCESS:      83230  HIT:      83079  MISS:        151  HIT %:    99.8186  MISS %:   0.181425   MPKI: 0.000755
PSCL4 LOAD TRANSLATION ACCESS:      83230  HIT:      83079  MISS:        151  HIT %:    99.8186  MISS %:   0.181425   MPKI: 0.000755
PSCL4 PREFETCH  REQUESTED:          0  ISSUED:          0  USEFUL:          0  USELESS:          0
PSCL4 USEFUL LOAD PREFETCHES:          0 PREFETCH ISSUED TO LOWER LEVEL:          0  ACCURACY: -nan
PSCL4 TIMELY PREFETCHES:          0 LATE PREFETCHES: 0 DROPPED PREFETCHES: 0
PSCL4 PREFETCHES SAME FILL-ORIGIN LEVEL: 0 DIFFERENT FILL-ORIGIN LEVEL: 0

PSCL3 TOTAL     ACCESS:      86647  HIT:      86169  MISS:        478  HIT %:    99.4483  MISS %:   0.551664   MPKI: 0.00239
PSCL3 LOAD TRANSLATION ACCESS:      86647  HIT:      86169  MISS:        478  HIT %:    99.4483  MISS %:   0.551664   MPKI: 0.00239
PSCL3 PREFETCH  REQUESTED:          0  ISSUED:          0  USEFUL:          0  USELESS:          0
PSCL3 USEFUL LOAD PREFETCHES:          0 PREFETCH ISSUED TO LOWER LEVEL:          0  ACCURACY: -nan
PSCL3 TIMELY PREFETCHES:          0 LATE PREFETCHES: 0 DROPPED PREFETCHES: 0
PSCL3 PREFETCHES SAME FILL-ORIGIN LEVEL: 0 DIFFERENT FILL-ORIGIN LEVEL: 0

PSCL2 TOTAL     ACCESS:      86980  HIT:      49951  MISS:      37029  HIT %:    57.4281  MISS %:    42.5719   MPKI: 0.185145
PSCL2 LOAD TRANSLATION ACCESS:      86980  HIT:      49951  MISS:      37029  HIT %:    57.4281  MISS %:    42.5719   MPKI: 0.185145
PSCL2 PREFETCH  REQUESTED:          0  ISSUED:          0  USEFUL:          0  USELESS:          0
PSCL2 USEFUL LOAD PREFETCHES:          0 PREFETCH ISSUED TO LOWER LEVEL:          0  ACCURACY: -nan
PSCL2 TIMELY PREFETCHES:          0 LATE PREFETCHES: 0 DROPPED PREFETCHES: 0
PSCL2 PREFETCHES SAME FILL-ORIGIN LEVEL: 0 DIFFERENT FILL-ORIGIN LEVEL: 0

LLC TOTAL     ACCESS:     664707  HIT:     389982  MISS:     274725  HIT %:    58.6698  MISS %:    41.3302   MPKI: 1.37362
LLC LOAD      ACCESS:     354435  HIT:     128143  MISS:     226292  HIT %:    36.1542  MISS %:    63.8458   MPKI: 1.13146
LLC RFO       ACCESS:     123872  HIT:      78939  MISS:      44933  HIT %:    63.7263  MISS %:    36.2737   MPKI: 0.224665
LLC PREFETCH  ACCESS:        847  HIT:        765  MISS:         82  HIT %:    90.3188  MISS %:    9.68123   MPKI: 0.00041
AGUS PREFETCH L1 MISS: 0
LLC WRITEBACK ACCESS:     159615  HIT:     158625  MISS:        990  HIT %:    99.3798  MISS %:   0.620242   MPKI: 0.00495
LLC LOAD TRANSLATION ACCESS:      25938  HIT:      23510  MISS:       2428  HIT %:    90.6392  MISS %:    9.36078   MPKI: 0.01214
LLC PREFETCH  REQUESTED:          0  ISSUED:          0  USEFUL:          0  USELESS:         53
LLC USEFUL LOAD PREFETCHES:          0 PREFETCH ISSUED TO LOWER LEVEL:         82  ACCURACY: 0
LLC TIMELY PREFETCHES:          0 LATE PREFETCHES: 0 DROPPED PREFETCHES: 0
LLC PREFETCHES SAME FILL-ORIGIN LEVEL: 0 DIFFERENT FILL-ORIGIN LEVEL: 0
LLC AVERAGE MISS LATENCY: 155.291 cycles
LLC RQ	ACCESS:     504245	FORWARD:          0	MERGED:          0	TO_CACHE:     504245
LLC WQ	ACCESS:     159615	FORWARD:          0	MERGED:          0	TO_CACHE:     159615
LLC PQ	ACCESS:        847	FORWARD:          0	MERGED:          0	TO_CACHE:        847

LLC Dense regions hint to LLC: 0

RAW hits: 2385367
Loads Generated: 51897258
Loads sent to L1D: 49511886
Stores Generated: 24183727
Stores sent to L1D: 24183739
Major fault: 0 Minor fault: 6201
Allocated PAGES: 6201
ucb ended
-----------------------------------------------------------------------------------------------------------------------------------------------------------------------------------------------------
Offsets elements: 36 -1727 1466015487001 -1466015485274 -1757 1465996606720 -124073 -1465996481222 1465996481274 -1465996479480 1466015483812 -1466015485606 305 1466015485302 -1466015485585 1465995999599 -1465995997827 1465995997828 15679 -52586492 -1465943430234 1465996001046 15680 -1465996015005 -292 328 1465996604963 -1465996606690 1465996606690 -1465996606720 -30 1465996482647 80 -1465996480970 1465996480889 1 19004384 -1 -18880310 18880311 -332 1466015485605 -1466015483812 1465943164870 -1465943166359 -1730 1730 1466015485301 -1466015485609 371 -363 1465996015296 19470306 -19485985 -1465996015279 1465996015279 19470308 -19485988 -15680 -1465995999326 1465996482646 -1465996482646 1757 1465996480891 19004382 -18880311 18880310 -19004256 -1465996481017 1794 1466015483811 -1466015485301 -308 1465996015304 -1465996015296 1465996480196 -1465996479833 -1793 1466015487032 -19470306 -15679 -29 2 -19485987 19485986 -1466015485613 1465996612139 18873472 -1465995999626 1465943456452 -1465943456432 1465996612119 -53430555 53401859 -53401859 -1465943184306 1465996608022 -21727 -4198 -2 -1465996579372 1465996490071 -1465996490189 1465943181331 -1465943181550 -19 1465996583460 -53401891 53423716 -53423716 53397789 18906238 -18995168 15372 -8206 -7167 1465996490189 -1465996490422 1465996583423 -4200 -90980 90982 -53397791 53306809 -53306809 90981 3 -7 5 18906237 -18988002 18988003 -1466015485577 1465995999590 -1465995999624 -371 408 -408 406 -406 402 -399 397 -397 1465995999224 382 -382 410 -410 1465995999626 -1465995999627 379 1465996611760 -117600 -1465996494538 398 -381 1465996583439 345 28337 -4961 18878432 -19485986 19485985 1465995999592 -1465995999618 1465995999617 -52543173 -1465943456039 1465996504396 -14359 18995156 -18980799 2021 -16381 -1465996490195 1465996506577 -1465996506796 1465996506796 -16383 -1465996490194 1465961125991 27929323 7451262 -7451263 -1465989055544 1465996506807 7451263 7451264 -7451264 26430039 -26430038 7434881 18995158 -1466015485607 385 1466015485222 -1466015485608 1465995999627 612512 -612507 19485982 -18996154 -1033 -488793 -6 494944 -6150 -1465996488411 1465996488411 -488788 19485975 1466015485608 -18873469 18873469 -1466015485592 23376 4962 18873470 -1466015485212 -16 1465995999244 -1465995999623 34 377 1465995999215 386 -386 1466015485609 -18991059 -1465996494163 1465995999240 -1465995999591 -34 1466015485611 -1466015485211 1465996611738 -1465996611754 1466015485226 401 1465996494135 18991071 -1466015485612 1466015485613 -18873474 18873473 -1465995999592 1465995999591 -52543174 -274869 72304028 -1466015485276 1466015485607 -1466015483813 -1466015485604 -4 1465996605295 -1465996603501 1465996603501 -1465996604963 1465943166332 -1465943168089 1425 -1465943166332 1465996481222 -1465996479424 -18972639 -513347 53050378 -1465996506826 332 -27 1489 -1790 1465996480201 125094 -3219 1465996479869 -1465996480201 -1462 3219 -1794 1465996481221 1465996478404 19005406 481602 31745 -513345 -1466015485614 1466015485614 -1466015485234 1465995999246 -15678 -1465996612139 1465995999625 612514 -612514 -1465995999599 -1465995999290 1466015485606 1466015483813 -1466015485603 1465943428809 53176486 -1465996605295 1465943427015 -1465943428477 1462 -1425 19004385 -1466015483809 1465943427012 72056798 -19004385 31746 -513346 -328 1465996605291 30 1465996482616 -1465996480889 1466015485274 -1466015487032 19004383 -19004332 -1465996480942 -1466015485302 1465996001047 1466015485273 -1466015487031 124073 -19004303 -1489 -72318942 1422 1465996482648 124072 -19005405 -1465996481626 1466015485610 -1466015485602 -1465996014933 1465995999254 -28 -1465995999605 -53126991 53155687 -6839 1465996586295 -53401989 -1465943181583 1465996579374 -1465996579001 1465943181550 -1465943181569 88929 -88931 1465996505562 -1465996497589 116907 -53397789 -1465996497608 -1466015485205 1465995999222 337 26 11 -9 -32 -379 403 -20 -1465996494140 -1465995999617 1465943456418 16379 1465996506797 -35338132 35338132 -19485983 7 -1465995999632 489827 -1465996489444 1465996612130 -117569 18997186 -19485974 1465995999243 1465995999623 1465996494549 -494924 1466015485612 -1466015485210 1466015485225 -1466015485575 1465996612104 -18873473 -1465996611737 1465995999218 494916 -1465996494508 -1465943181579 1465943166660 -1465943166664 1465943164867 72318943 -1465943456448 1465996506494 -1465996506521 1465996478407 -1465996479869 3222 1022 -31747 19004386 -1466015485611 19485987 -1466015485233 1466015485234 15678 1465996612113 -1465995999622 1465943430234 72056797 -1465996479425 1465995997825 1465996512672 -1465996512636 -1465995999325 1465996480204 -464900 1466015485239 -1430 1465996016726 53397791 -73558 -15373 7167 -1465996497356 -233 -1465995999220 -26 37 -402 -8 -383 -1465995999248 -1465996611740 -89263 117600 1465943456444 52543173 -1465995999212 16382 -1465996506577 -35335400 35335400 612507 489828 -489827 6 -5 488793 6150 -72318944 -1465943166660 -1429 53314558 18972640 -1465996481228 1465996512973 -1465995999625 -612513 -1465995999247 1465996015305 1466015487031 1465995999317 -403 -1465995999244 28 1465996611728 -1465996611760 20 1465961119512 16999069 18387995 -18387995 -1465978118812 1465978118812 -18387996 18387996 37366771 -37366770 18371613 489821 -489826 494943 -3 -1466015485589 -1465995999239 -1466015485576 1466015485575 -18991060 -1465996494149 -18873472 -1465943456116 18978781 1466015485303 -1465996478407 1465996481626 1020 1466015487033 -53176486 -1465943428809 -19004331 1465943184306 53401989 -1465996583572 372 -400 -1465995999227 -411 -1465995999609 28682 1465996583403 -112638 18991073 1465961093719 4515615 30897242 -30897242 -1465965609565 -30897243 30897243 49876018 -49876018 30880861 -1465995999225 -366 -35 -1466015485610 -1465996612138 -1465995999240 1465995999241 612513 -373 1465996494206 -53312959 -1465943179785 -72318943 72318944 1465996480197 1466015485275 1465996479424 19004387 1465996480206 -480578 -1465996001046 -1465996512972 596834 -72056798 4 1466015483809 18880312 -19004386 -53052412 -1465996512672 1465995999290 -1465996586165 1465943459174 1465943181583 -1465996579003 1465996579001 -88930 8 18878431 -35392998 35392998 52832957 481600 -53056520 -124021 19004332 -1466015485605 19004256 1797 1465996013507 480579 -25 -35335766 -1465961154428 1465966683153 29823423 -29823423 -1465966683384 -29823424 29823424 48802199 -48802198 29807041 -1466015485275 -301 19005407 -1466015487033 18972641 -1465995999600 1793 399 -393 1465996612121 -28682 -35359989 35359989 1465996494561 -1466015485303 1465996612138 -1465996014926 1465995999248 -596834 -1466015487030 1465996480890 1465996481302 -1465996479508 -24 21825 -114858 88931 72304026 -18995167 88930 -73557 1465961095893 3379028 32031655 -32031655 -1465964475152 -32031656 32031656 51010431 -51010430 32015273 -18873468 -1465996479427 1465995997824 -52832957 52832958 53024774 -1465996512968 19004331 1465943428504 72318941 19004257 -35397673 35397673 -1465996611753 1465996489067 18997187 19485976 -18873471 -1465996612121 1465995999219 1465943456448 -1465943454654 1465943179785 -14915 1429 -1465996481221 1465996481223 1802 -1465995999246 1465996512971 -497667 -1465943428513 -1465996481218 1465996512964 605673 -23 19 
Potential of Offsets elements: 176.15 124.15 118.15 280.15 385.15 266.15 124.15 149.15 44.1503 44.1503 295.15 340.15 164.15 147.15 100.15 153.15 406.15 334.15 401.15 104.15 73.1503 442.15 573.15 160.15 49.1503 172.15 343.15 140.15 148.15 262.15 291.15 113.15 34.1503 70.1503 188.15 1318.08 48.1503 1564.12 133.15 255.15 406.15 212.15 223.15 100.15 52.1503 133.15 112.15 46.1503 412.15 99.1503 51.1503 28.1503 28.1503 28.1503 28.1503 28.1503 28.1503 28.1503 28.1503 28.1503 133.15 118.15 266.15 69.1503 73.1503 214.15 177.15 37.1503 46.1503 200.15 205.15 164.15 112.15 28.1503 28.1503 44.1503 44.1503 130.15 253.15 28.1503 28.1503 80.1503 868.15 28.1503 28.1503 86.1503 160.15 208.15 28.1503 80.1503 28.1503 58.1503 148.15 61.1503 44.1503 36.1503 31.1503 34.1503 34.1503 819.15 99.1503 41.1503 66.1503 60.1503 76.1503 71.1503 29.1503 36.1503 68.1503 117.15 91.1503 153.15 111.15 30.1503 30.1503 49.1503 62.1503 49.1503 59.1503 36.1503 40.1503 37.1503 81.1503 94.1503 52.1503 31.1503 844.15 274.15 391.15 160.15 62.1503 28.1503 117.15 28.1503 28.1503 102.15 45.1503 43.1503 55.1503 55.1503 71.1503 109.15 82.1503 77.1503 28.1503 78.1503 74.1503 56.1503 52.1503 28.1503 28.1503 101.15 58.1503 38.1503 62.1503 91.1503 81.1503 64.1503 47.1503 48.1503 48.1503 68.1503 28.1503 28.1503 28.1503 28.1503 28.1503 28.1503 36.1503 30.1503 30.1503 33.1503 32.1503 36.1503 42.1503 40.1503 40.1503 73.1503 73.1503 49.1503 33.1503 28.1503 28.1503 28.1503 28.1503 28.1503 36.1503 28.1503 28.1503 28.1503 28.1503 28.1503 28.1503 115.15 430.15 59.1503 40.1503 368.15 28.1503 28.1503 28.1503 28.1503 40.1503 32.1503 28.1503 253.15 28.1503 28.1503 40.1503 40.1503 28.1503 28.1503 374.15 48.1503 61.1503 111.15 32.1503 38.1503 136.15 144.15 117.15 28.1503 28.1503 123.15 71.1503 28.1503 46.1503 56.1503 348.15 36.1503 31.1503 28.1503 28.1503 221.15 239.15 83.1503 48.1503 35.1503 75.1503 65.1503 30.1503 33.1503 171.15 83.1503 78.1503 118.15 28.1503 28.1503 28.1503 32.1503 106.15 172.15 393.15 298.15 149.15 699.15 171.15 208.15 220.15 215.15 100.15 88.1503 321.15 100.15 116.15 46.1503 92.1503 28.1503 38.1503 47.1503 406.15 232.15 112.15 158.15 116.15 84.1503 442.15 104.15 132.15 427.15 370.15 344.15 154.15 40.1503 92.1503 28.1503 34.1503 28.1503 35.1503 33.1503 71.1503 28.1503 28.1503 138.15 28.1503 28.1503 28.1503 28.1503 28.1503 556.15 348.15 260.15 100.15 76.1503 268.15 140.15 154.15 406.15 482.15 204.15 141.15 40.1503 100.15 339.15 40.1503 28.1503 180.15 160.15 392.15 84.1503 130.15 100.15 184.15 91.1503 40.1503 43.1503 148.15 28.1503 172.15 223.15 82.1503 34.1503 118.15 64.1503 217.15 58.1503 52.1503 80.1503 88.1503 361.15 228.15 28.1503 28.1503 144.15 28.1503 28.1503 28.1503 58.1503 30.1503 44.1503 148.15 78.1503 48.1503 84.1503 36.1503 32.1503 42.1503 31.1503 32.1503 37.1503 62.1503 54.1503 57.1503 28.1503 57.1503 172.15 201.15 285.15 39.1503 104.15 94.1503 137.15 35.1503 28.1503 28.1503 32.1503 48.1503 28.1503 28.1503 28.1503 353.15 28.1503 28.1503 32.1503 83.1503 28.1503 32.1503 28.1503 28.1503 28.1503 41.1503 28.1503 216.15 116.15 104.15 107.15 55.1503 109.15 40.1503 28.1503 28.1503 40.1503 52.1503 64.1503 128.15 40.1503 92.1503 38.1503 148.15 100.15 113.15 76.1503 70.1503 36.1503 46.1503 229.15 55.1503 28.1503 52.1503 51.1503 28.1503 58.1503 28.1503 41.1503 80.1503 40.1503 28.1503 37.1503 64.1503 28.1503 76.1503 28.1503 88.1503 88.1503 28.1503 53.1503 32.1503 31.1503 46.1503 34.1503 34.1503 28.1503 208.15 82.1503 72.1503 331.15 100.15 28.1503 48.1503 30.1503 40.1503 64.1503 28.1503 28.1503 77.1503 40.1503 28.1503 28.1503 28.1503 28.1503 28.1503 342.15 529.15 28.1503 28.1503 64.1503 56.1503 138.15 44.1503 83.1503 31.1503 32.1503 28.1503 28.1503 28.1503 28.1503 238.15 28.1503 141.15 28.1503 44.1503 37.1503 67.1503 67.1503 28.1503 28.1503 28.1503 28.1503 28.1503 28.1503 28.1503 28.1503 28.1503 28.1503 28.1503 28.1503 28.1503 28.1503 850.15 65.1503 28.1503 232.15 183.15 42.1503 30.1503 178.15 28.1503 281.15 140.15 120.15 80.1503 28.1503 28.1503 28.1503 28.1503 28.1503 28.1503 28.1503 28.1503 28.1503 28.1503 28.1503 72.1503 28.1503 28.1503 28.1503 28.1503 28.1503 28.1503 28.1503 28.1503 28.1503 28.1503 28.1503 28.1503 28.1503 28.1503 28.1503 28.1503 28.1503 170.15 28.1503 28.1503 28.1503 28.1503 28.1503 28.1503 28.1503 28.1503 28.1503 28.1503 28.1503 28.1503 28.1503 28.1503 33.1503 28.1503 28.1503 28.1503 28.1503 28.1503 28.1503 383.15 28.1503 28.1503 28.1503 28.1503 31.1503 28.1503 30.1503 28.1503 28.1503 40.1503 44.1503 44.1503 341.15 53.1503 28.1503 28.1503 28.1503 28.1503 28.1503 38.1503 88.1503 263.15 36.1503 262.15 28.1503 28.1503 200.15 28.1503 28.1503 28.1503 28.1503 28.1503 28.1503 28.1503 28.1503 28.1503 28.1503 28.1503 313.15 144.15 133.15 156.15 52.1503 28.1503 122.15 28.1503 52.1503 48.1503 48.1503 28.1503 28.1503 28.1503 82.1503 158.15 28.1503 28.1503 28.1503 148.15 100.15 30.1503 28.1503 100.15 31.1503 37.1503 45.1503 28.1503 140.15 42.1503 30.1503 28.1503 28.1503 28.1503 28.1503 28.1503 28.1503 28.1503 28.1503 28.1503 28.1503 61.1503 124.15 28.1503 28.1503 28.1503 28.1503 108.15 39.1503 56.1503 28.1503 44.1503 28.1503 28.1503 38.1503 29.1503 37.1503 28.1503 220.15 48.1503 28.1503 28.1503 28.1503 28.1503 28.1503 130.15 148.15 74.1503 43.1503 28.1503 58.1503 28.1503 37.1503 64.1503 49.1503 28.1503 175.15 233.15 
rewards of Offsets elements: 148 96 90 252 357 238 96 121 16 16 267 312 136 119 72 125 378 306 373 76 45 414 545 132 21 144 315 112 120 234 263 85 6 42 160 1317 20 1564 105 227 378 184 195 72 24 105 84 18 384 71 23 0 0 0 0 0 0 0 0 0 105 90 238 41 45 186 149 9 18 172 177 136 84 0 0 16 16 102 225 0 0 52 840 0 0 58 132 180 0 52 0 30 120 33 16 8 3 6 6 791 71 13 38 32 48 43 1 8 40 89 63 125 83 2 2 21 34 21 31 8 12 9 53 66 24 3 816 246 363 132 34 0 89 0 0 74 17 15 27 27 43 81 54 49 0 50 46 28 24 0 0 73 30 10 34 63 53 36 19 20 20 40 0 0 0 0 0 0 8 2 2 5 4 8 14 12 12 45 45 21 5 0 0 0 0 0 8 0 0 0 0 0 0 87 402 31 12 340 0 0 0 0 12 4 0 225 0 0 12 12 0 0 346 20 33 83 4 10 108 116 89 0 0 95 43 0 18 28 320 8 3 0 0 193 211 55 20 7 47 37 2 5 143 55 50 90 0 0 0 4 78 144 365 270 121 671 143 180 192 187 72 60 293 72 88 18 64 0 10 19 378 204 84 130 88 56 414 76 104 399 342 316 126 12 64 0 6 0 7 5 43 0 0 110 0 0 0 0 0 528 320 232 72 48 240 112 126 378 454 176 113 12 72 311 12 0 152 132 364 56 102 72 156 63 12 15 120 0 144 195 54 6 90 36 189 30 24 52 60 333 200 0 0 116 0 0 0 30 2 16 120 50 20 56 8 4 14 3 4 9 34 26 29 0 29 144 173 257 11 76 66 109 7 0 0 4 20 0 0 0 325 0 0 4 55 0 4 0 0 0 13 0 188 88 76 79 27 81 12 0 0 12 24 36 100 12 64 10 120 72 85 48 42 8 18 201 27 0 24 23 0 30 0 13 52 12 0 9 36 0 48 0 60 60 0 25 4 3 18 6 6 0 180 54 44 303 72 0 20 2 12 36 0 0 49 12 0 0 0 0 0 314 501 0 0 36 28 110 16 55 3 4 0 0 0 0 210 0 113 0 16 9 39 39 0 0 0 0 0 0 0 0 0 0 0 0 0 0 822 37 0 204 155 14 2 150 0 253 112 92 52 0 0 0 0 0 0 0 0 0 0 0 44 0 0 0 0 0 0 0 0 0 0 0 0 0 0 0 0 0 142 0 0 0 0 0 0 0 0 0 0 0 0 0 0 5 0 0 0 0 0 0 355 0 0 0 0 3 0 2 0 0 12 16 16 313 25 0 0 0 0 0 10 60 235 8 234 0 0 172 0 0 0 0 0 0 0 0 0 0 0 285 116 105 128 24 0 94 0 24 20 20 0 0 0 54 130 0 0 0 120 72 2 0 72 3 9 17 0 112 14 2 0 0 0 0 0 0 0 0 0 0 33 96 0 0 0 0 80 11 28 0 16 0 0 10 1 9 0 192 20 0 0 0 0 0 102 120 46 15 0 30 0 9 36 21 0 147 205 Printing Sanity3
offset_index value679
offset list size679
reward size679
potential size679
-----------------------------------------------------------------------------------------------------------------------------------------------------------------------------------------------------

DRAM Statistics
 CHANNEL 0
 RQ ROW_BUFFER_HIT:      61903  ROW_BUFFER_MISS:     211812
 DBUS_CONGESTED:        310
 WQ ROW_BUFFER_HIT:      11693  ROW_BUFFER_MISS:      46096  FULL:          0

 AVG_CONGESTED_CYCLE: 5
 All warmup complete: 2
Channel 0 Bank busy for read cycles: 0
Channel 0 Bank busy for write cycles: 0
Channel 0
Rank 0
0banks busy for read cycles: 245788809
0banks busy for write cycles: 31081
1banks busy for read cycles: 22560238
1banks busy for write cycles: 5541485
2banks busy for read cycles: 1342188
2banks busy for write cycles: 708114
3banks busy for read cycles: 557945
3banks busy for write cycles: 179562
4banks busy for read cycles: 374039
4banks busy for write cycles: 128213
5banks busy for read cycles: 301488
5banks busy for write cycles: 118107
6banks busy for read cycles: 293053
6banks busy for write cycles: 112548
7banks busy for read cycles: 221681
7banks busy for write cycles: 127798
8banks busy for read cycles: 205035
8banks busy for write cycles: 190089

CPU 0 Branch Prediction Accuracy: 99.7863% MPKI: 0.390065 Average ROB Occupancy at Mispredict: 20.0942
Branch types
NOT_BRANCH: 163487732 81.7439%
BRANCH_DIRECT_JUMP: 2284365 1.14218%
BRANCH_INDIRECT: 12536315 6.26816%
BRANCH_CONDITIONAL: 14135281 7.06764%
BRANCH_DIRECT_CALL: 3327463 1.66373%
BRANCH_INDIRECT_CALL: 450518 0.225259%
BRANCH_RETURN: 3777991 1.889%
BRANCH_OTHER: 0 0%

DRAM PAGES: 1048576
Allocated PAGES: 6201
