
*** ChampSim Multicore Out-of-Order Simulator ***

Warmup Instructions: 50000000
Simulation Instructions: 200000000
Number of CPUs: 1
LLC sets: 2048
LLC ways: 16
Off-chip DRAM Size: 4096 MB Channels: 1 Width: 64-bit Data Rate: 6400 MT/s
CPU 0 runs traces/spec2k17/srv_69.champsimtrace.xz
.xz
BTB has LRU replacement policy
ITLB has LRU replacement policy
DTLB has LRU replacement policy
STLB has LRU replacement policy
L1I has LRU replacement policy
L1D has LRU replacement policy
Initialize SRRIP state for L2C
Initialize DRRIP state for LLC
Heartbeat CPU 0 instructions: 10000001 cycles: 2779908 heartbeat IPC: 3.59724 cumulative IPC: 3.59724 (Simulation time: 0 hr 0 min 36 sec) 
Heartbeat CPU 0 instructions: 20000003 cycles: 5562100 heartbeat IPC: 3.59429 cumulative IPC: 3.59576 (Simulation time: 0 hr 1 min 13 sec) 
Heartbeat CPU 0 instructions: 30000000 cycles: 8334332 heartbeat IPC: 3.6072 cumulative IPC: 3.59957 (Simulation time: 0 hr 1 min 48 sec) 
*** Reached end of trace for Core: 0 Repeating trace: traces/spec2k17/srv_69.champsimtrace.xz
Heartbeat CPU 0 instructions: 40000003 cycles: 11108027 heartbeat IPC: 3.6053 cumulative IPC: 3.601 (Simulation time: 0 hr 2 min 25 sec) 
Heartbeat CPU 0 instructions: 50000003 cycles: 13888570 heartbeat IPC: 3.59642 cumulative IPC: 3.60008 (Simulation time: 0 hr 3 min 0 sec) 

Warmup complete CPU 0 instructions: 50000003 cycles: 13888570 (Simulation time: 0 hr 3 min 0 sec) 

Offsets elements: 
Potential of Offsets elements: 
rewards of Offsets elements: 
Printing Sanity1
offset list size2097
Offsets elements: 
Potential of Offsets elements: 
rewards of Offsets elements: 0 0 0 0 1061 0 0 0 0 0 0 0 12 6 0 0 0 9 13 156 0 0 0 0 0 2052 0 18 0 0 0 0 0 0 0 0 0 0 0 0 0 0 0 0 0 0 0 161 0 0 0 0 0 0 0 0 34 0 0 0 564 0 0 0 0 0 0 0 0 0 0 0 0 0 0 0 0 0 0 0 0 0 0 0 0 0 0 0 0 0 0 0 0 1068 0 0 0 0 0 0 0 0 0 0 0 0 0 0 0 0 0 0 0 0 0 0 0 0 0 0 0 0 0 0 0 0 0 0 0 0 0 0 0 1068 0 0 0 6 0 0 0 0 0 0 0 0 0 0 0 0 0 0 0 2 34 0 0 0 125 154 0 0 0 0 0 0 0 0 0 0 0 0 0 0 0 0 0 0 0 102 0 0 0 0 0 0 0 0 0 0 0 0 0 0 0 0 0 0 0 0 0 0 0 0 0 0 0 0 0 0 0 0 0 0 0 0 0 0 0 100 0 0 0 0 0 0 2 0 0 0 0 0 0 0 0 0 0 0 0 0 0 0 0 0 0 0 0 0 0 0 0 0 0 0 0 0 0 0 0 0 0 0 0 0 0 0 0 0 0 0 0 0 0 0 0 0 0 0 0 0 0 0 0 0 0 0 0 0 0 0 0 0 0 0 0 0 0 0 0 0 0 432 0 0 0 0 0 0 0 0 0 0 0 0 0 0 0 0 0 0 0 0 0 0 0 0 0 0 0 0 0 0 0 0 0 0 0 0 0 0 0 0 0 0 0 0 0 0 0 0 0 0 0 0 0 0 0 0 0 140 0 0 0 0 0 0 0 0 0 0 0 0 0 0 0 0 0 0 0 0 0 0 0 0 0 0 0 0 0 0 0 0 587 0 0 0 0 0 0 0 0 0 0 0 0 0 0 0 0 0 0 0 0 0 0 0 0 0 377 0 0 0 0 0 0 0 0 0 0 0 0 0 0 0 0 0 0 0 0 0 0 0 0 0 0 768 0 0 0 0 0 0 518 0 0 0 0 0 0 0 0 0 0 0 0 0 0 0 0 0 0 96 0 0 0 0 0 0 0 0 0 0 168 315 0 0 0 0 0 0 1420 0 0 0 0 0 0 0 0 0 0 0 0 0 0 0 0 0 0 0 0 0 0 0 0 0 0 0 0 0 0 0 0 437 0 0 0 0 0 0 0 0 0 0 0 0 0 0 0 584 0 0 51 181 0 0 78 0 0 0 0 0 0 0 0 0 0 0 0 0 0 0 0 0 0 0 0 0 0 0 0 0 0 0 0 0 0 0 0 0 0 0 0 0 0 0 0 0 0 0 0 0 0 0 0 0 0 0 0 0 0 0 0 0 0 18 0 0 0 0 0 0 0 0 0 0 0 0 0 0 0 0 0 0 0 0 0 0 0 0 0 0 0 0 0 0 0 0 0 0 0 0 0 0 0 0 0 0 0 0 0 0 0 0 0 0 0 0 0 0 0 0 0 0 0 0 0 0 0 0 0 0 0 0 0 0 0 0 0 0 0 0 0 0 0 0 0 0 0 0 0 0 0 0 0 27 0 0 0 0 0 0 0 0 0 0 0 0 0 0 0 0 0 0 48 0 0 0 0 0 0 0 0 0 0 0 0 0 0 0 0 0 0 0 0 0 0 0 0 0 0 0 0 111 0 0 0 0 0 0 0 0 0 0 0 0 0 0 0 0 0 0 0 0 0 0 0 0 0 0 0 0 0 0 0 0 0 0 0 0 0 0 0 0 0 0 0 0 0 0 0 0 0 0 0 0 0 0 0 0 0 0 0 0 0 0 0 0 24 0 0 2 12 0 0 0 0 0 0 0 0 0 0 0 0 0 0 0 0 0 0 0 0 0 0 0 0 0 0 0 0 0 0 0 0 0 0 0 0 0 0 0 0 0 0 0 0 0 0 0 0 0 0 0 0 0 0 0 0 0 0 0 0 0 0 0 0 0 0 0 0 0 0 0 0 0 0 0 0 0 0 0 0 0 0 0 0 0 0 0 0 0 0 0 0 0 0 0 0 0 0 0 0 0 0 0 0 0 0 0 0 0 0 0 0 0 0 0 0 0 0 0 0 0 0 0 0 0 0 0 0 0 0 0 0 0 0 0 0 0 0 0 0 0 0 0 0 0 0 0 0 0 0 0 0 0 0 0 0 0 0 0 0 0 0 0 0 0 0 0 0 861 0 0 0 0 0 0 0 0 0 0 0 0 0 0 0 0 0 0 0 0 0 0 0 0 0 0 0 0 0 143 426 404 0 0 0 0 0 0 0 0 0 0 0 0 0 0 0 0 24 0 0 0 0 0 0 0 0 0 0 0 0 0 0 0 0 0 0 0 0 0 0 0 0 0 0 0 0 0 0 0 0 0 0 0 0 0 0 0 0 0 0 0 0 0 0 0 0 0 0 0 0 0 0 0 0 0 0 0 0 0 1 0 0 0 0 0 0 0 0 0 0 0 0 0 0 0 0 0 0 12 0 0 0 0 0 0 0 0 0 0 0 0 0 0 0 0 0 0 0 0 0 0 0 0 0 0 0 0 0 0 0 0 0 0 0 0 0 0 0 0 0 0 0 0 39 0 0 0 0 0 0 0 0 0 0 0 0 0 0 54 0 0 0 0 0 0 0 0 0 0 0 0 0 0 0 0 0 0 0 0 0 0 0 0 0 0 0 0 0 0 0 0 0 0 0 0 0 0 0 0 0 0 0 0 0 0 0 0 0 0 0 0 0 0 0 0 0 0 0 0 0 580 0 0 0 0 0 0 0 0 0 0 0 0 0 0 0 0 0 0 0 0 0 0 0 0 0 0 0 0 0 0 0 0 0 0 0 0 15 3 61 26 3 21 25 85 0 0 0 0 0 0 24 0 0 0 0 0 0 0 0 0 0 0 0 0 0 0 0 0 0 0 0 0 0 0 0 0 0 0 0 0 0 0 0 16 18 1 6 0 0 0 0 0 0 0 0 0 0 9 0 0 0 0 0 0 0 0 0 0 0 0 0 0 0 0 0 0 0 0 0 0 0 0 0 0 0 0 0 0 0 56 0 0 0 0 0 0 0 0 0 0 0 0 0 0 0 0 0 0 0 0 0 0 0 0 0 0 0 0 0 0 0 0 0 0 0 0 0 0 0 144 0 0 0 0 0 0 0 0 0 0 0 0 0 2 0 0 0 0 0 0 0 0 0 0 0 0 0 0 0 0 0 1 0 0 0 0 0 0 0 0 0 0 0 0 0 0 0 0 0 0 0 0 0 0 270 0 0 0 0 0 0 0 0 0 0 0 0 0 0 0 0 0 16 0 0 0 0 0 0 0 0 0 0 0 0 0 0 0 0 0 0 0 0 0 0 0 0 0 0 0 0 0 0 0 0 0 0 0 0 0 0 0 0 0 0 0 0 0 0 0 0 0 0 0 0 0 0 0 0 0 0 0 0 0 0 0 0 0 0 0 0 0 49 0 0 0 0 0 0 0 0 0 0 0 0 0 0 0 0 0 0 0 0 0 0 0 0 0 0 0 0 0 0 0 0 0 0 0 0 0 0 0 0 0 0 0 0 0 0 0 0 118 36 10 0 0 64 0 0 0 0 0 0 0 0 0 0 0 0 0 0 0 0 0 0 0 0 0 0 0 0 0 0 0 0 0 0 1 0 0 0 0 0 0 0 0 0 0 0 0 0 0 0 0 0 0 0 0 0 0 0 0 0 0 0 0 0 0 0 0 0 0 0 0 0 0 0 0 0 0 0 0 0 0 0 0 0 0 0 0 0 0 0 0 0 0 0 0 0 0 0 0 0 0 0 0 0 0 0 0 0 0 0 0 0 0 0 0 0 0 0 0 0 0 0 0 0 0 0 0 0 0 0 0 0 0 0 0 0 0 0 0 4 1 0 0 0 0 0 0 0 0 72 0 0 0 0 0 0 0 0 0 51 0 0 0 22 0 0 0 0 0 0 0 0 0 18 0 0 0 0 0 0 0 0 0 0 0 0 63 0 0 0 0 0 0 0 0 0 0 0 0 0 0 0 0 0 0 0 0 0 0 0 0 0 0 0 0 0 0 0 0 0 20 0 22 0 0 0 0 0 0 1465 0 0 0 0 0 0 0 0 0 0 2 0 36 0 0 0 0 0 0 0 0 0 0 0 0 0 0 0 71 0 0 0 0 0 0 0 0 0 10 16 6 0 12 0 0 64 0 0 0 303 0 0 12 0 0 0 0 0 0 0 0 4 0 0 0 0 0 0 0 0 0 0 0 0 0 0 0 0 0 0 0 36 72 0 0 0 0 0 0 1 4 0 0 0 0 0 0 0 0 0 0 0 0 0 144 0 0 0 0 0 0 0 0 0 0 0 6 0 0 0 0 0 0 0 0 0 0 0 0 0 0 0 0 0 0 0 0 0 0 49 0 0 0 0 0 0 0 0 0 0 0 0 0 0 0 0 0 0 0 0 0 0 0 0 0 0 0 0 0 0 0 0 0 288 6 0 0 0 0 0 0 0 0 0 0 0 0 0 0 0 0 0 0 0 0 0 0 0 0 0 0 0 0 0 0 0 0 0 0 0 0 0 0 0 0 0 0 0 0 18 10 0 10 0 3 0 0 0 0 0 0 0 0 0 0 0 0 0 0 0 0 0 0 0 0 0 0 0 0 0 0 0 0 0 0 0 0 0 0 0 0 0 0 0 0 0 0 0 0 0 
Printing Sanity2
Heartbeat CPU 0 instructions: 60000000 cycles: 37225549 heartbeat IPC: 0.428504 cumulative IPC: 0.428504 (Simulation time: 0 hr 4 min 2 sec) 
*** Reached end of trace for Core: 0 Repeating trace: traces/spec2k17/srv_69.champsimtrace.xz
Heartbeat CPU 0 instructions: 70000001 cycles: 60757934 heartbeat IPC: 0.424946 cumulative IPC: 0.426718 (Simulation time: 0 hr 5 min 4 sec) 
Heartbeat CPU 0 instructions: 80000000 cycles: 84597451 heartbeat IPC: 0.419472 cumulative IPC: 0.424275 (Simulation time: 0 hr 6 min 5 sec) 
Heartbeat CPU 0 instructions: 90000001 cycles: 108706118 heartbeat IPC: 0.414789 cumulative IPC: 0.421863 (Simulation time: 0 hr 7 min 5 sec) 
*** Reached end of trace for Core: 0 Repeating trace: traces/spec2k17/srv_69.champsimtrace.xz
Heartbeat CPU 0 instructions: 100000000 cycles: 132384619 heartbeat IPC: 0.422324 cumulative IPC: 0.421955 (Simulation time: 0 hr 8 min 8 sec) 
Heartbeat CPU 0 instructions: 110000000 cycles: 155829040 heartbeat IPC: 0.426541 cumulative IPC: 0.422712 (Simulation time: 0 hr 9 min 11 sec) 
Heartbeat CPU 0 instructions: 120000002 cycles: 180126733 heartbeat IPC: 0.411562 cumulative IPC: 0.421083 (Simulation time: 0 hr 10 min 13 sec) 
*** Reached end of trace for Core: 0 Repeating trace: traces/spec2k17/srv_69.champsimtrace.xz
Heartbeat CPU 0 instructions: 130000000 cycles: 203657171 heartbeat IPC: 0.424981 cumulative IPC: 0.421566 (Simulation time: 0 hr 11 min 17 sec) 
Heartbeat CPU 0 instructions: 140000003 cycles: 227719355 heartbeat IPC: 0.41559 cumulative IPC: 0.420894 (Simulation time: 0 hr 12 min 19 sec) 
Heartbeat CPU 0 instructions: 150000000 cycles: 251595598 heartbeat IPC: 0.418826 cumulative IPC: 0.420686 (Simulation time: 0 hr 13 min 20 sec) 
*** Reached end of trace for Core: 0 Repeating trace: traces/spec2k17/srv_69.champsimtrace.xz
Heartbeat CPU 0 instructions: 160000001 cycles: 275032572 heartbeat IPC: 0.426676 cumulative IPC: 0.421224 (Simulation time: 0 hr 14 min 20 sec) 
Heartbeat CPU 0 instructions: 170000000 cycles: 298683440 heartbeat IPC: 0.422817 cumulative IPC: 0.421356 (Simulation time: 0 hr 15 min 21 sec) 
Heartbeat CPU 0 instructions: 180000003 cycles: 322820589 heartbeat IPC: 0.414299 cumulative IPC: 0.420805 (Simulation time: 0 hr 16 min 24 sec) 
*** Reached end of trace for Core: 0 Repeating trace: traces/spec2k17/srv_69.champsimtrace.xz
Heartbeat CPU 0 instructions: 190000000 cycles: 346176215 heartbeat IPC: 0.428162 cumulative IPC: 0.421322 (Simulation time: 0 hr 17 min 27 sec) 
Heartbeat CPU 0 instructions: 200000000 cycles: 370029449 heartbeat IPC: 0.41923 cumulative IPC: 0.421182 (Simulation time: 0 hr 18 min 28 sec) 
Heartbeat CPU 0 instructions: 210000002 cycles: 394137821 heartbeat IPC: 0.414794 cumulative IPC: 0.420777 (Simulation time: 0 hr 19 min 30 sec) 
*** Reached end of trace for Core: 0 Repeating trace: traces/spec2k17/srv_69.champsimtrace.xz
Heartbeat CPU 0 instructions: 220000000 cycles: 417419339 heartbeat IPC: 0.429525 cumulative IPC: 0.421281 (Simulation time: 0 hr 20 min 31 sec) 
Heartbeat CPU 0 instructions: 230000003 cycles: 441427369 heartbeat IPC: 0.416527 cumulative IPC: 0.421014 (Simulation time: 0 hr 21 min 32 sec) 
Heartbeat CPU 0 instructions: 240000000 cycles: 465495160 heartbeat IPC: 0.415493 cumulative IPC: 0.42072 (Simulation time: 0 hr 22 min 33 sec) 
*** Reached end of trace for Core: 0 Repeating trace: traces/spec2k17/srv_69.champsimtrace.xz
Heartbeat CPU 0 instructions: 250000003 cycles: 488616862 heartbeat IPC: 0.432494 cumulative IPC: 0.421294 (Simulation time: 0 hr 23 min 27 sec) 
Finished CPU 0 instructions: 200000000 cycles: 474728292 cumulative IPC: 0.421294 (Simulation time: 0 hr 23 min 27 sec) 

ChampSim completed all CPUs

Region of Interest Statistics

CPU 0 cumulative IPC: 0.421294 instructions: 200000000 cycles: 474728292
ITLB TOTAL     ACCESS:   31682632  HIT:   30867168  MISS:     815464  HIT %:    97.4261  MISS %:    2.57385   MPKI: 4.07732
ITLB LOAD TRANSLATION ACCESS:   31682632  HIT:   30867168  MISS:     815464  HIT %:    97.4261  MISS %:    2.57385   MPKI: 4.07732
ITLB PREFETCH  REQUESTED:          0  ISSUED:          0  USEFUL:          0  USELESS:          0
ITLB USEFUL LOAD PREFETCHES:          0 PREFETCH ISSUED TO LOWER LEVEL:          0  ACCURACY: -nan
ITLB TIMELY PREFETCHES:          0 LATE PREFETCHES: 0 DROPPED PREFETCHES: 0
ITLB PREFETCHES SAME FILL-ORIGIN LEVEL: 0 DIFFERENT FILL-ORIGIN LEVEL: 0
ITLB AVERAGE MISS LATENCY: 15.4234 cycles
ITLB RQ	ACCESS:   38412930	FORWARD:          0	MERGED:    6538059	TO_CACHE:   31874871

DTLB TOTAL     ACCESS:   37901091  HIT:   35438748  MISS:    2462343  HIT %:    93.5032  MISS %:    6.49676   MPKI: 12.3117
DTLB LOAD TRANSLATION ACCESS:   37901091  HIT:   35438748  MISS:    2462343  HIT %:    93.5032  MISS %:    6.49676   MPKI: 12.3117
DTLB PREFETCH  REQUESTED:          0  ISSUED:          0  USEFUL:          0  USELESS:          0
DTLB USEFUL LOAD PREFETCHES:          0 PREFETCH ISSUED TO LOWER LEVEL:          0  ACCURACY: -nan
DTLB TIMELY PREFETCHES:          0 LATE PREFETCHES: 0 DROPPED PREFETCHES: 0
DTLB PREFETCHES SAME FILL-ORIGIN LEVEL: 0 DIFFERENT FILL-ORIGIN LEVEL: 0
DTLB AVERAGE MISS LATENCY: 14.2748 cycles
DTLB RQ	ACCESS:   48342160	FORWARD:          0	MERGED:   10296235	TO_CACHE:   38045925

STLB TOTAL     ACCESS:    3323081  HIT:    2869955  MISS:     453126  HIT %:    86.3643  MISS %:    13.6357   MPKI: 2.26563
STLB LOAD TRANSLATION ACCESS:    3277807  HIT:    2824681  MISS:     453126  HIT %:    86.1759  MISS %:    13.8241   MPKI: 2.26563
STLB TRANSLATION FROM L1D PREFETCHER ACCESS:      45274  HIT:      45274  MISS:          0  HIT %:        100  MISS %:          0   MPKI: 0
STLB PREFETCH  REQUESTED:          0  ISSUED:          0  USEFUL:          0  USELESS:          0
STLB USEFUL LOAD PREFETCHES:          0 PREFETCH ISSUED TO LOWER LEVEL:          0  ACCURACY: -nan
STLB TIMELY PREFETCHES:          0 LATE PREFETCHES: 0 DROPPED PREFETCHES: 0
STLB PREFETCHES SAME FILL-ORIGIN LEVEL: 0 DIFFERENT FILL-ORIGIN LEVEL: 0
STLB AVERAGE MISS LATENCY: 40.0562 cycles
STLB RQ	ACCESS:    3324061	FORWARD:          0	MERGED:        980	TO_CACHE:    3323081

STLB Hit, L1D data hit: 0
STLB Hit, L2C data hit: 0
STLB Hit, LLC data hit: 0
STLB Hit, LLC data miss: 0
STLB STLB hints to L2: 0
L1D TOTAL     ACCESS:   47834576  HIT:   45378863  MISS:    2455713  HIT %:    94.8662  MISS %:    5.13376   MPKI: 12.2786
L1D LOAD      ACCESS:   28281137  HIT:   26176423  MISS:    2104714  HIT %:    92.5579  MISS %:    7.44211   MPKI: 10.5236
L1D RFO       ACCESS:   19507279  HIT:   19163704  MISS:     343575  HIT %:    98.2387  MISS %:    1.76127   MPKI: 1.71788
L1D PREFETCH  ACCESS:      46160  HIT:      38736  MISS:       7424  HIT %:    83.9168  MISS %:    16.0832   MPKI: 0.03712
AGUS PREFETCH L1 MISS: 0
L1D PREFETCH  REQUESTED:      94551  ISSUED:      94551  USEFUL:         73  USELESS:       7347
L1D USEFUL LOAD PREFETCHES:         73 PREFETCH ISSUED TO LOWER LEVEL:       7424  ACCURACY: 0.983297
L1D TIMELY PREFETCHES:         73 LATE PREFETCHES: 0 DROPPED PREFETCHES: 0
L1D PREFETCHES SAME FILL-ORIGIN LEVEL: 7424 DIFFERENT FILL-ORIGIN LEVEL: 0
L1D AVERAGE MISS LATENCY: 47.5099 cycles
L1D RQ	ACCESS:   42625091	FORWARD:          0	MERGED:   13988531	TO_CACHE:   28420630
L1D WQ	ACCESS:   20255400	FORWARD:     215930	MERGED:     333870	TO_CACHE:   19921530
L1D PQ	ACCESS:      48297	FORWARD:          0	MERGED:       2043	TO_CACHE:      46254

L1D UNIQUE REGIONS ACCESSED: 0
L1D REGIONS CONFLICTS: 0
L1D Cross Page Prefetch Requests: 32118
L1D Same Page Prefetch Requests: 16179
L1D ROI Sum of L1D PQ occupancy: 600503
L1D PREFETCHES PUSHED FROM L2C: 0
L1I TOTAL     ACCESS:   36779910  HIT:   31721147  MISS:    5058763  HIT %:    86.2459  MISS %:    13.7541   MPKI: 25.2938
L1I LOAD      ACCESS:   36779910  HIT:   31721147  MISS:    5058763  HIT %:    86.2459  MISS %:    13.7541   MPKI: 25.2938
L1I PREFETCH  REQUESTED:          0  ISSUED:          0  USEFUL:          0  USELESS:          0
L1I USEFUL LOAD PREFETCHES:          0 PREFETCH ISSUED TO LOWER LEVEL:          0  ACCURACY: -nan
L1I TIMELY PREFETCHES:          0 LATE PREFETCHES: 0 DROPPED PREFETCHES: 0
L1I PREFETCHES SAME FILL-ORIGIN LEVEL: 0 DIFFERENT FILL-ORIGIN LEVEL: 0
L1I AVERAGE MISS LATENCY: 27.3716 cycles
L1I RQ	ACCESS:   57432058	FORWARD:          0	MERGED:   19019128	TO_CACHE:   38412930

BTB TOTAL     ACCESS:   23164672  HIT:   18167926  MISS:    4996746  HIT %:    78.4295  MISS %:    21.5705   MPKI: 24.9837
BTB BRANCH_DIRECT_JUMP	ACCESS:    1914726  HIT:    1629531  MISS:     285195
BTB BRANCH_INDIRECT	ACCESS:    9756590  HIT:    7380331  MISS:    2376259
BTB BRANCH_CONDITIONAL	ACCESS:    4774696  HIT:    4326608  MISS:     448088
BTB BRANCH_DIRECT_CALL	ACCESS:    2648257  HIT:    2097355  MISS:     550902
BTB BRANCH_INDIRECT_CALL	ACCESS:     697289  HIT:     631848  MISS:      65441
BTB BRANCH_RETURN	ACCESS:    3373114  HIT:    2102253  MISS:    1270861
BTB BRANCH_OTHER ACCESS:          0  HIT:          0  MISS:          0

L2C TOTAL     ACCESS:    9050954  HIT:    5367113  MISS:    3683841  HIT %:    59.2989  MISS %:    40.7011   MPKI: 18.4192
L2C LOAD      ACCESS:    7163362  HIT:    3920465  MISS:    3242897  HIT %:    54.7294  MISS %:    45.2706   MPKI: 16.2145
L2C DATA LOAD MPKI: 5.54381
L2C INSTRUCTION LOAD MPKI: 10.6707
L2C RFO       ACCESS:     343575  HIT:     168382  MISS:     175193  HIT %:    49.0088  MISS %:    50.9912   MPKI: 0.875965
L2C PREFETCH  ACCESS:       7424  HIT:       5141  MISS:       2283  HIT %:    69.2484  MISS %:    30.7516   MPKI: 0.011415
AGUS PREFETCH L1 MISS: 0
L2C DATA PREFETCH MPKI: 0.011415
L2C INSTRUCTION PREFETCH MPKI: 0
L2C WRITEBACK ACCESS:     962968  HIT:     906216  MISS:      56752  HIT %:    94.1066  MISS %:    5.89345   MPKI: 0.28376
L2C LOAD TRANSLATION ACCESS:     573625  HIT:     366909  MISS:     206716  HIT %:    63.9632  MISS %:    36.0368   MPKI: 1.03358
L2C PREFETCH  REQUESTED:          0  ISSUED:          0  USEFUL:          7  USELESS:       2267
L2C USEFUL LOAD PREFETCHES:          7 PREFETCH ISSUED TO LOWER LEVEL:       2283  ACCURACY: 0.306614
L2C TIMELY PREFETCHES:          7 LATE PREFETCHES: 0 DROPPED PREFETCHES: 0
L2C PREFETCHES SAME FILL-ORIGIN LEVEL: 0 DIFFERENT FILL-ORIGIN LEVEL: 0
L2C AVERAGE MISS LATENCY: 41.9011 cycles
L2C RQ	ACCESS:    8080677	FORWARD:          0	MERGED:          0	TO_CACHE:    8080562
L2C WQ	ACCESS:     962968	FORWARD:        115	MERGED:          0	TO_CACHE:     962968
L2C PQ	ACCESS:       7424	FORWARD:          0	MERGED:          0	TO_CACHE:       7424

L2C Instructions Evicting Data 768482
L2C Translations Evicting Data 75137
L2C Data Evicting Data 478018
L2C Instructions Evicting Instructions 1242483
L2C Translations Evicting Instructions 121448
L2C Data Evicting Instructions 737928
L2C Instructions Evicting Translations 123170
L2C Translations Evicting Translations 10131
L2C Data Evicting Translations 70292
L2C Dense regions hint from L2: 0
PSCL5 TOTAL     ACCESS:     453126  HIT:     453126  MISS:          0  HIT %:        100  MISS %:          0   MPKI: 0
PSCL5 LOAD TRANSLATION ACCESS:     453126  HIT:     453126  MISS:          0  HIT %:        100  MISS %:          0   MPKI: 0
PSCL5 PREFETCH  REQUESTED:          0  ISSUED:          0  USEFUL:          0  USELESS:          0
PSCL5 USEFUL LOAD PREFETCHES:          0 PREFETCH ISSUED TO LOWER LEVEL:          0  ACCURACY: -nan
PSCL5 TIMELY PREFETCHES:          0 LATE PREFETCHES: 0 DROPPED PREFETCHES: 0
PSCL5 PREFETCHES SAME FILL-ORIGIN LEVEL: 0 DIFFERENT FILL-ORIGIN LEVEL: 0

PSCL4 TOTAL     ACCESS:     423148  HIT:     421905  MISS:       1243  HIT %:    99.7062  MISS %:   0.293751   MPKI: 0.006215
PSCL4 LOAD TRANSLATION ACCESS:     423148  HIT:     421905  MISS:       1243  HIT %:    99.7062  MISS %:   0.293751   MPKI: 0.006215
PSCL4 PREFETCH  REQUESTED:          0  ISSUED:          0  USEFUL:          0  USELESS:          0
PSCL4 USEFUL LOAD PREFETCHES:          0 PREFETCH ISSUED TO LOWER LEVEL:          0  ACCURACY: -nan
PSCL4 TIMELY PREFETCHES:          0 LATE PREFETCHES: 0 DROPPED PREFETCHES: 0
PSCL4 PREFETCHES SAME FILL-ORIGIN LEVEL: 0 DIFFERENT FILL-ORIGIN LEVEL: 0

PSCL3 TOTAL     ACCESS:     449624  HIT:     445810  MISS:       3814  HIT %:    99.1517  MISS %:   0.848264   MPKI: 0.01907
PSCL3 LOAD TRANSLATION ACCESS:     449624  HIT:     445810  MISS:       3814  HIT %:    99.1517  MISS %:   0.848264   MPKI: 0.01907
PSCL3 PREFETCH  REQUESTED:          0  ISSUED:          0  USEFUL:          0  USELESS:          0
PSCL3 USEFUL LOAD PREFETCHES:          0 PREFETCH ISSUED TO LOWER LEVEL:          0  ACCURACY: -nan
PSCL3 TIMELY PREFETCHES:          0 LATE PREFETCHES: 0 DROPPED PREFETCHES: 0
PSCL3 PREFETCHES SAME FILL-ORIGIN LEVEL: 0 DIFFERENT FILL-ORIGIN LEVEL: 0

PSCL2 TOTAL     ACCESS:     453126  HIT:     337684  MISS:     115442  HIT %:    74.5232  MISS %:    25.4768   MPKI: 0.57721
PSCL2 LOAD TRANSLATION ACCESS:     453126  HIT:     337684  MISS:     115442  HIT %:    74.5232  MISS %:    25.4768   MPKI: 0.57721
PSCL2 PREFETCH  REQUESTED:          0  ISSUED:          0  USEFUL:          0  USELESS:          0
PSCL2 USEFUL LOAD PREFETCHES:          0 PREFETCH ISSUED TO LOWER LEVEL:          0  ACCURACY: -nan
PSCL2 TIMELY PREFETCHES:          0 LATE PREFETCHES: 0 DROPPED PREFETCHES: 0
PSCL2 PREFETCHES SAME FILL-ORIGIN LEVEL: 0 DIFFERENT FILL-ORIGIN LEVEL: 0

LLC TOTAL     ACCESS:    4097591  HIT:    3797101  MISS:     300490  HIT %:    92.6667  MISS %:    7.33333   MPKI: 1.50245
LLC LOAD      ACCESS:    3242897  HIT:    3000912  MISS:     241985  HIT %:     92.538  MISS %:      7.462   MPKI: 1.20992
LLC RFO       ACCESS:     175186  HIT:     126655  MISS:      48531  HIT %:    72.2974  MISS %:    27.7026   MPKI: 0.242655
LLC PREFETCH  ACCESS:       2283  HIT:       2265  MISS:         18  HIT %:    99.2116  MISS %:   0.788436   MPKI: 9e-05
AGUS PREFETCH L1 MISS: 0
LLC WRITEBACK ACCESS:     470509  HIT:     467181  MISS:       3328  HIT %:    99.2927  MISS %:   0.707319   MPKI: 0.01664
LLC LOAD TRANSLATION ACCESS:     206716  HIT:     200088  MISS:       6628  HIT %:    96.7937  MISS %:    3.20633   MPKI: 0.03314
LLC PREFETCH  REQUESTED:          0  ISSUED:          0  USEFUL:          0  USELESS:          4
LLC USEFUL LOAD PREFETCHES:          0 PREFETCH ISSUED TO LOWER LEVEL:         18  ACCURACY: 0
LLC TIMELY PREFETCHES:          0 LATE PREFETCHES: 0 DROPPED PREFETCHES: 0
LLC PREFETCHES SAME FILL-ORIGIN LEVEL: 0 DIFFERENT FILL-ORIGIN LEVEL: 0
LLC AVERAGE MISS LATENCY: 151.561 cycles
LLC RQ	ACCESS:    3624806	FORWARD:          0	MERGED:          0	TO_CACHE:    3624799
LLC WQ	ACCESS:     470509	FORWARD:          7	MERGED:          0	TO_CACHE:     470509
LLC PQ	ACCESS:       2283	FORWARD:          0	MERGED:          0	TO_CACHE:       2283

LLC Dense regions hint to LLC: 0

RAW hits: 2753020
Loads Generated: 45378115
Loads sent to L1D: 42625091
Stores Generated: 20255404
Stores sent to L1D: 20255400
Major fault: 0 Minor fault: 5460
Allocated PAGES: 5460
ucb ended
-----------------------------------------------------------------------------------------------------------------------------------------------------------------------------------------------------
Offsets elements: -4397629297509 4397629568131 -4397629531324 -33734 1 33712 -36785 4397629297509 8458374 8192 -167993 150321 17673 -17360 -4397637870190 4397637892526 -4397638365446 -15 7 -6 4397629893916 -4397629893917 4397629893917 8458375 -4397638352291 -1 -4397629895459 10 4397638353824 -4397638353829 4397629895454 -8458375 -4397629895456 4397638353831 -4397629895458 4397629895458 -4397638353833 4397638353833 4397629895459 -4397638353834 1558 -16 4397630164538 -4397630164538 4397636752268 -6858352 -389005618 -7 31 4398027187559 -4398027187559 389005609 4397629893902 -4397629895035 1119 -4397630164523 15 -1155 4397629895057 -8458374 2 8458372 -8458371 2424555 5880122 -7634208 1754086 -2424552 8304664 -8304667 1004922 1419633 -5880122 8304662 -8304665 -1754033 7633846 -8304368 -4397631579233 4397631579234 -4397499997708 4397501125146 -2132361 2132361 -4397633711594 1718589 4397629860643 5879978 -7634011 -670522 1004923 1419632 -2424555 3 -7634143 1004925 7299443 -4397639883602 132586447 4397501125155 -4397633711603 4397640037605 7634128 -5880095 5880125 -8304677 2424553 5880112 -5880112 -2424556 -4397629297177 4397629967642 -4397629967642 4397631721732 -4397629296397 4397629966905 1754048 5880109 -4397637601059 4397631720950 670508 -4397499693669 4397501447717 5880141 -4397638129695 4397629824998 2424556 -1754047 7633860 -8304370 1004926 -4397630302495 130226972 8 4397502772059 -3701471 3701471 -4397633600366 130875741 4397499023154 -4397629898895 4397502733018 -4397633608759 4397629898894 8458373 -4397637755940 -157 4397629297724 -4397629329920 4397629329920 5880110 -7634157 1754047 12 -27 -4397631719049 4397629294508 2424221 25 -42 -1419277 -4397500028072 4397501447702 5880089 -4397507327791 -7634155 -670509 1004927 7299441 -8304369 -4397616834554 117793558 4397501624628 -4397619418186 4397625292926 -1754046 7634135 -5880089 -2424553 -3 8304665 334418 7299439 -4397625138922 117793556 4397501624557 -4397619418112 -434 -62781 4110 4397616893660 7634021 -5879975 5879991 -5879991 5879981 -5879981 670511 -670511 670510 334419 -4397629294507 130271369 4397501149858 -2126720 2126720 -4397631421227 4397629294507 -1754045 7634186 -5880141 670503 1754054 5880124 4397637601845 -1754055 7634167 -4397507304992 4397501424880 1754053 5880114 -4397632387759 4397638267868 -5880109 670450 -4397629967626 1118 4397637600426 -4397639905822 4397632606384 -4397500040914 4397501460421 -2424437 2424436 -4397634025888 4397640059824 -1754106 7634215 670504 334427 -4397629959461 130959148 4397499607225 -606916 606915 7851457 -1754052 7634198 -5880146 8304517 -8304517 670523 -670523 1004932 7299436 -4397629297176 130258706 4397501453712 -4397631712417 2740 4397637752807 -4397632323406 4397638203385 -7634012 1004933 1419624 5880118 -5880118 8304667 -2424559 -7634217 334501 7299419 -4397631601453 132565465 4397499035988 2420971 -4397634022423 2424559 -1754111 7634217 -5880106 670441 -4397499670672 4397501424791 5880143 -8304699 -7634215 334499 -4397638221732 -1684090 132565469 4397501460423 -4397634025891 -1754109 670502 -670501 8304368 1004951 -4397632606408 132600772 6 4397499670166 -669488 669487 -4397632270944 4397640059829 -1754057 7634035 -5879978 -2424560 -334426 7633844 132586448 4397501125181 -2132396 2132396 -4397633711629 4397631579232 -8458373 -4397631579232 -22233 22233 -22232 22231 2283177 -663406 799541 -389739493 389000919 602438 -2283175 -387320181 388939949 -1619767 4397631849843 -4397631849834 4397638434278 -6855062 6855062 7199004 -343942 -6855060 -4397640037604 4398019170026 -4397631849833 4397631579217 -4397631579230 -4397633711602 4397631579230 4397631579229 4397499545071 7906087 -4397631601462 4397631601461 -4397629296053 4397636151113 -6855059 6855059 6855060 -4397636151114 4397636151114 -6855058 -8458372 2424560 -1754035 7634139 -8304664 270621 2153947 -2424568 8458364 -8187759 4397631579228 6855049 -4397638456509 8458363 -4397631849832 4397631849835 4397638434276 -6584444 -4397631849831 4397638434275 -4397638434279 -4397638434278 2096709 4397629753125 -4397499269794 4397499269794 -4397631849830 4397638434277 4397631849834 4 4397631579227 -4397629297186 4397629296067 -4397629223156 -2378306 2209525 4397636647296 -4397636676350 -405943 476531 -475280 475280 55965 -3083 3083 4397637752799 4397638434274 -4397629567788 -2282041 4397631579226 7255360 -4397638856822 4397638856822 -4397636551427 -609852 30 65303 4397637095946 -4397636479298 -389678225 389678224 -691491 -388986733 -691493 -388986731 -691492 -388986732 4397629915429 -4397637682300 -600632 4397629824568 -4397631579231 -22231 22232 -4397636814510 -1642009 1679449 -1679449 4397631872075 -4397631849828 4397631579223 -4397631579229 -4 -4397638456519 22245 -6855048 -8458360 8458360 -4397631601454 -10 4397631872065 4397631849828 -4397631872065 22238 4397631849827 -4397631849826 4397631849826 -4397631849824 -8458359 7252729 1205630 -4398027357749 4398018899390 6855043 -6855044 132534241 4397499044987 4397631579224 6855044 -6855045 -4398025754434 4398027357749 -4397631849823 4397640037582 -4398025754347 4398018899303 397685 -7252729 -4397631579234 5 -5 132580070 -132580070 4397640037594 -8458362 132581786 4397498997448 -2 132543003 4397501457689 -4397634000693 -519901809 519901809 4397498997446 611746 -4397632190976 1599209 -1599208 22229 4397631849836 -4397631849822 4397638434266 -4397638434280 4397638434280 132543004 4397501457717 -4397634000720 4397638434268 -6855050 8458365 -8458365 -4397631579219 2096700 130483331 -4397631849821 4397638434265 -4397638434269 4397631579218 6855050 -4397638434268 -11 4397501457435 6037155 -4397631579218 4397501457433 6037158 -4397640037583 4397501457440 6037150 4397501457438 6037152 -1603315 8458362 132542962 4397501457602 -4397634000556 -12 4397499609192 -611746 11 -8 132542963 4397501457455 6037174 -4397638434277 4397501457590 -4397634000552 1574841 4397630004386 4397640037592 -4397505891315 -132542962 4397634000434 -4397505891314 -132542963 4397634000442 -4397501457480 4397501457587 -4397634000548 1718576 4397629860650 -8458363 -4397631579228 1574833 143735 4397629860653 -4397630004387 -1574833 1718568 4397629860652 -4397631579220 -132581786 132581790 4397499604569 -4398019506284 387319915 1707315 4397636726965 -4397636632269 -1802011 132581793 4397499621060 -4397632202852 4397638434287 -6855052 8458367 -4397640037596 -1364151 4397632943388 4397638434279 1814215 4397629765013 -1364159 4397640205753 -4397640205753 1341918 2305407 -2305408 1740820 4397629860647 -4397629187994 4397629187994 -6855049 -8458364 4397499604573 -4397632186373 -4397641401754 133921734 4397501155797 -2134142 -4397632943390 4397632943390 4397501457679 -4397634000681 -387319897 4398018899126 -4397638460616 4397630002252 4397501457593 -4397634000555 -1364162 132542980 4397501457671 -4397634000645 4397498997447 6855047 4397631579220 -4397631579226 4397640037590 -4397499036245 -132542975 -4397638434275 132542981 214 -4397634000630 1574839 -1597074 1740808 4397630131257 1574832 4397630274991 -4397631849820 4397638434264 -4397631849819 -387319835 389000547 4397636753550 -6855053 -4398018901028 4398018901029 -6855051 -4397631579215 -387319832 389027133 94696 4397636632269 -4397638434266 -8458366 6855051 4397631579215 270607 4397638434263 -4397630274991 -1574827 -387319837 389000548 -4398025756081 4398025756081 1603315 -4397638434265 -387319834 389027134 4397631579214 -4397639798439 -1364164 1341930 -1328933 1351167 4397631849831 -4397633213995 1364178 4397638434261 -4397638434260 -387319839 385955657 4397639798441 -4397640037578 -387319836 4398025754099 -4397636726965 -1801994 -1364179 8458368 -8458368 -4397631579209 133944129 -130388666 4397629387942 8458366 -4397638434263 -4397639798456 4397632943405 -4397632943405 1364181 -22234 -4398027357413 1364179 -1364178 4397632943391 -4397632943404 4397641401770 -4397507457642 -130388668 4397629387944 4397631579212 1364180 -387319823 4398027357413 -4397640059824 1729544 -1364180 -4397632943402 4397641401768 -130388672 4397629387948 -4397631579212 4398025754098 -4397640037590 3071488 -1729544 1824240 -4397632943401 4397641401767 132579936 -130388665 4397636242992 -4397639798452 1364177 387297589 -4397638330280 -9 133944124 -133944124 4397632943400 -4397637846305 4397637846305 387319835 -4397639798450 1364176 4397638456509 133944122 -130388670 4397637846312 -4398025754098 -3071484 1364186 1802006 -1801993 -22246 22246 4397631579211 -4397639798441 -385955656 -4397641401763 1364173 -1364173 133944121 -130388667 4397636242994 4397641401756 -4397641401762 4397632943396 -4397505854327 -130388669 4397636242996 -4397639798447 1364172 -1364171 -385955652 -4397632943394 4397641401760 -130388671 4397636242998 -4397639798445 1364170 -4397632943393 4397641401759 -130388664 4397636242991 -4397639798444 1364169 4397631579219 -4397505891295 -132542980 4397634000432 4397505891294 4397634000440 -4397501457459 4397501457457 132578485 4397499669731 -4397632248210 132556689 -132556689 132578486 4397499669740 -4397632248225 1574844 131006942 -131006941 143734 -1718573 -1740819 -22245 4397631601469 4397501421949 -2421209 1364164 -1351168 1328923 22244 -4397631579225 4397631579225 -22251 4397638456519 132578479 4397505855789 -6037158 -4397634000425 -4397505855789 -132578486 -6037150 4433835 4397499000741 -6037152 -2421210 6855046 -6855046 -4397631579227 4397631849825 -4397631849815 -124932 4397636276046 7213820 -4397638793036 4397498997445 -4397616834562 -14744662 14744228 117790015 4397501719215 -2674247 -4397631579223 -4397631579221 132534243 4397501719179 -4397619509207 -14744228 14681447 -14681447 4397631579222 -4397631579222 14685555 -14685557 -1718567 -1718568 -4397631579224 -4397631579214 4397632943385 270610 -4397629692826 130381603 -130930591 -388927782 388915899 -11844 11844 759850 4397629223229 -4397629223229 -2355994 2355993 4397631579221 -4397632943386 4397632943383 -4397640037587 -4397631579213 -22260 2441544 -2441543 2441543 -136135 73182 62953 -62952 62952 -62953 4397629222882 -4397629860652 132557557 7270655 -4397640214046 4397631849818 -4397629430534 -3783461 4397633213995 4397640136837 -4397640136836 133944117 -133944117 3555453 -3555450 3783463 -3720509 3082738 -3069741 3069741 4397629860649 4397501719194 -4397634253450 -4397632943388 -1364197 4397640136854 -4397640136853 3082753 -36336 4397629896990 -4397632943408 133921678 4397501155214 -4397635076898 4397641401773 -4397638319020 4397629860654 -1264919 -7193447 -4397631579211 2419284 -3770464 -12991 12991 4397633201004 -4398019169590 389476764 -572715 130954318 -11883 4397629223226 -4397629223226 8458370 270606 -2419280 4397631579207 7193447 -4397636416327 4397636077930 -4397631849814 4397631579208 -1364196 -132579933 2356330 4397636077931 -4397640037576 -2356330 -4397631579208 2356329 4397629222879 -4397629387941 -3555463 3555463 4397629387941 -4398018898903 385955500 13014 -13013 4397632930388 4397632943401 -1364194 23 4397632943379 270616 4397629223223 -4397629223223 -8458370 -4397629387938 4397629387938 -4397631579207 -4397629387939 3044889 130859328 4397501624061 5873492 -8458369 4397632943399 -4397631579217 1364182 -1658697 1658698 -1654759 1654756 4397640037588 -4397640037588 4397631849829 -4397631849813 4397631849813 -4397631849809 4397638434252 -4397638434273 14 -13 13 4397638434259 -1654770 1654770 4397631579201 8458371 -1364195 1364194 133944128 -4397629222878 4397629222877 6855053 -4397640037575 -4397629387943 -3555460 -385955501 4398018898904 -4397629387942 -3555459 13012 -4397631579204 4397631579205 4397633214017 3521169 -3521190 133902799 -130381603 -389476770 388927782 -23727 4397629983073 2355980 -2355980 -4397629387940 -2191267 -1364192 3044888 -3044888 4397641401769 -4397499039184 -133904216 4397635528277 -4397634164096 4397631579204 -4397632943400 -294515 1658696 -1654769 1654772 -1654772 1654768 -4397641401756 -1364193 1364193 133944126 -132579934 -8458367 -4397629387947 -3555454 -385955503 -4397629387946 13011 -13011 -4397631579205 -4397629387945 -2191263 -1364191 3044887 4397638356881 -4397632943399 133904215 8458369 -4397641401768 -1658696 1658710 4397631849815 -4397631849808 4397631849808 -4397631849799 -29 4397638434273 -4397638434259 4397638434254 -4397640037569 -1654773 1654778 -1654778 1654771 4397631579196 1364191 133944125 4397631579209 -4397629222879 -3720521 -385955504 13010 -13010 4397632943397 19 4397631579200 -4397631579200 4397631579199 -1364190 519858373 -130954318 23727 2355975 -2355975 -4397629387937 -2191270 3044886 -3044885 4397641401766 -133904213 4397635528274 -4397632943397 -294518 -1654771 1654777 -1654777 -3720520 -385955505 13008 -13009 1364197 -4397629387935 -2191272 -1364188 3044884 -3044884 4397641401765 -133904212 4397635528273 1658715 1654769 -19 4397631849810 4397631849799 -4397631849782 -46 28 4397638434245 -4397638434254 9 -4397640037560 4397631579187 -1364189 1364189 -3720518 -385955507 -4397629387944 -3555452 13007 -13006 4397632943394 -4397631579191 4397631579190 1364204 -17 2355966 -2355966 -2191265 -1364187 3044883 -3044882 4397641401763 -133904210 4397635528271 4397631579191 1364175 1654786 -1654786 1654776 1364187 -3720517 -385955508 13006 -13005 4397632943393 1364203 4397631849824 -2191268 -1364186 3044882 133904209 -294522 -1654776 1654774 133944120 4397629222878 -4398018898904 385955510 3555451 13004 3542446 -2191277 -4397632943392 1364201 -2191266 -1364184 3044880 -3044880 4397641401761 -133904208 4397635528269 -4397632943391 -294523 -1654774 1654787 -1654787 1654773 -1364185 1364185 133944118 -3720514 -385955511 -3555447 13003 -13002 1364200 17 4397631849807 -2191264 -1364183 3044879 -3044878 -4397631579190 4397640037560 -294525 1364183 132579934 -4397629222877 4397637681245 4398018898903 -3542451 -13001 1364171 -1364182 1364199 -3521179 133902788 -4397629387936 -2191271 -1364181 3044877 -3044877 4397641401758 -133904205 4397635528266 -4397632943389 -294526 -28 4397631849801 4397631849782 -4397631849749 -80 -4397638434245 18 -18 16 -20 21 22 -21 -22 4397638434228 -4397640037543 -1654788 1654804 -1654803 4397631579170 45 4397631579181 -8458361 4397501457723 -2421494 4397501457461 6037169 132542972 4397634000421 -4397501421936 4397499669774 -4397632248258 4397640037595 4397631579184 270600 -4397631849829 35 -35 -4397631579151 4397640037510 8458359 -4397507528116 4397499069757 4397631579150 6855045 -4397631579150 4397638434195 4397501457720 6036870 4397501457458 6037171 4397501457666 5881951 145511 312 22337 -4976 -8466555 -22235 2305058 -54006 55949 -126541 4397629420994 -4397629294454 -3070 4397637596088 313 22336 -8466560 -4397629297522 4397637755889 -4397629982929 4397629982921 -4397638441288 4397638441288 4397629982922 -4397637752817 4397629565064 -4397629565064 -3072 4397636157031 1598858 -4397629297523 -389602021 389605068 4397629294451 4397629568136 -75073 78137 4397629294452 -4397637830975 4397629372618 -4397637752824 4397629294460 -4397629297526 3075 -3075 4397637746410 -145512 4976 -22337 -8449200 -4397637755890 -123469 123469 -123470 123467 -123471 123468 -123472 4397629691605 -4397629692825 -499118 4397637180626 -4397637242895 167436 -167436 12180296 -70396 -5121 -11259578 4397629138399 -4397629350409 -126536 70587 55950 -97477 41534 55943 4397629294459 -4397629294458 4397629294457 -4397629294457 4397637593021 -4397637869865 4397637870178 -4397637746727 4397637764086 4977 -8471536 -4397629297527 4397637755894 -4397629297528 4397638441289 -4397629982921 4397638441287 -4397629982922 -688468 -8187753 8187753 -4397637755894 4397629297528 -3073 4397636157036 -4398025759052 -4397637582495 4397629294455 -4397629372636 75109 -75102 4397629643243 -4397629565067 -3074 3072 -4397629372660 78194 -3071 4397637746414 -4397637743339 4397637597827 17361 -8466561 8466560 -8466559 -123450 123451 -123452 4397629420980 -4397629350402 -126523 4397629420982 55944 -4397637752823 -4397629294460 4397629391936 -4397629895609 4397638194172 17672 -17359 17360 -4397638365485 4397629893954 -4397629893954 4397638352321 -4397629893956 -88973 -4397638352305 4397630164552 -4397638352321 4397629893939 -4397629893935 -389005589 4398025757887 -4398025757894 -4397638181979 -4397629894090 130 4397630164568 8178273 -8448886 8448883 -145511 163185 -4397638360499 4397638365474 4397638343148 -4397638343310 4397638360664 -4397638360498 4397638360493 -4397638360492 -4397638360497 4397638360497 -4397638352322 4397629893945 -4397638352298 4397629893935 -4397629893945 4397638352308 -4397638353973 601150 -599492 4397629893947 2282824 1882 -35424 35460 -35459 -3068 4397637596114 17359 -8471532 -4397629297553 4397629297553 -4397637755915 -4397638441295 4397629982932 4397629982929 -4397638441293 4397638441293 -4397629982931 4397629982931 -4397638441294 4397638441294 -4397637752847 4397629565094 -4397629565093 -3069 4397636157056 -6859504 -4398018899547 24 4398027357886 -389602001 389605069 -3067 4397629568162 8017426 -4397637582520 -4397629294485 4397637752847 -4397637752846 4397629297552 -4397629372891 4397629372912 -4397629329946 35463 4397637593044 -4397637779140 32393 4397637769083 -4977 -8466556 -4397629297551 4397637755914 -4397637755914 -685381 4397638441284 -4397638441289 688448 -688449 4397630253541 -270610 -389601996 389605067 -389605074 -4397637585586 4397636157054 -4398025759027 389605041 4397629294482 4397629568161 -4397629565091 -78368 78369 4397629297551 -4397637761037 -35464 4397637801477 -4397637844402 -521461 4397629894356 -4397629894339 4397638352702 -4397629894338 88598 -88601 -4397630164938 -389005209 389005185 4397629894338 6858339 1600024 -4398027357917 389005215 4397638182365 -8288036 4397630164948 -4397630164949 4397629894329 -4397638352692 26 -25 -1684899 1684903 -14 4397629894339 1883 -35427 35456 -35455 35455 -3065 4397637596117 -8471533 -4397629297556 4397637755919 -4397629297555 4397629297556 688441 4397629565100 -4397637752852 -389601992 389601968 4397636157059 -4397637582527 4397629294491 4397629568165 -4397629565100 3066 -78485 78484 4397629297555 -4397637831358 4397629372996 -4397629329948 35459 4397637593050 -4397637801478 32391 4397637746750 -8449196 -4397629297554 4397637755917 -4397637755917 4397629297554 4397629982926 -4397629294487 -688444 -4397637752849 -389601993 389601970 4397636157057 -4397637582524 4397629294488 -4397629372932 75378 4397629568164 -4397629565097 8458361 -4397637831316 43007 -564402 4397638192910 -4397638365874 4397638360897 -4397629894342 4397638352705 4397638352704 -4397638441284 88585 4397630164956 -4397638352709 4397629894342 -4397629894341 4397636752680 -4397636752681 -389005205 -4397638182383 4397629894347 4397630164951 -4397630164956 -4397638352826 4397629894443 -387319620 4398019169456 -493195 99414 130775390 -548988 110582 -122465 4397629983084 4397499669743 7789361 -4397631579257 16169847 4397615409410 -22197 4397638854196 -7252731 6855002 -4397638456456 1789445 4397637064740 -4397637064740 -6982130 -4397631849748 4397638831878 -397686 -4397636857301 4397630002256 -4397638456504 4397638456460 -4397638456460 4397640059818 -4397640059818 22309 4397638434231 -4397638456461 1683528 -1683528 4397640059811 -4397640059811 4397638456454 -4397638456454 4397631872053 -22305 4397638456496 -4397640037509 4397638434194 -4397638456496 22302 4397631579149 4397631601450 -4397631601450 -387297368 4398019169429 8027680 82 4914 -4510 -607 5419 -8032988 -270604 8302673 -4397637724902 4397637720782 -5421864 -2876692 69 2876624 5421475 612 -202 -5421885 288223780704148329 -2200618729396 2637 2200618727006 -247 -43431 43431 248 -243 43675 -2200618642463 2200618642463 -2200618642464 2200618642462 -2200615039197 2200615039197 -2200615032498 2200615032252 247 -43656 -2200618683350 -288221580085421570 -43409 43656 -2200618727005 2200618727004 -2200615039196 2200615041497 -2300 2300 -46590 -26 44316 -2200615041498 2200615041498 -2200615041497 2200615039194 -2200615032499 -6698 2200615039198 -44290 44299 -44299 -2200618598229 2200618598218 46372 -2200618644599 2200618642295 -2200618642295 2200629775521 386 -11177665 11177714 -2200629775932 1642 2200618640881 11133407 -11133406 -2200618642455 2200618598158 11177702 -11177713 -2200618682811 2200618682825 62965 -62344 11177088 -11177089 62341 -62342 62342 -62341 104 -103 20 -57034 100693 18664 -62965 11177709 62962 -62964 62966 62967 -62940 -31 11177680 36 -11114748 -16596 2200629775721 -11114523 11114745 -11235926 81254 -81253 121179 -121178 121176 -39907 11154622 -11154624 11154654 -33 -11154621 21245 -21246 11154621 11154619 -11133374 18661 -2200618596751 2200618659716 208 -207 728 -728 43577 23057 11154620 34 -11154655 11154618 -11154618 32 -2200629761278 2200614732334 3874289 21248 11133371 -11133372 -44309 624 -2200618683435 86062 2200629774462 -11177090 -18900 -43433 -624 616 -11177088 -2200618596750 2200618641056 11133406 43444 241 -44308 -2200618682810 2200629860526 -11133408 11133370 -11177654 44285 -44311 44312 -250 254 -288223780707025275 8298559 -5421869 -2606086 -270585 2443873 -2443872 8298293 -8303591 270603 -4398019169309 4398019169299 8032988 -8303589 -4397631579149 7252731 -4397638854190 1789450 -1789452 4397638854192 4397638260889 168161 -8466553 4397638854186 -4397637157713 195 64187 -389058041 388993856 512700 130329010 -130835247 57723 193 4397629840404 -4397629898320 600602 11345994 -11269084 4397637519367 8448882 -8449195 -4397629220807 11289620 4397618201796 -270609 6881695 1576667 -4397626393640 4397617935279 -4397629220808 4397629220808 -389678717 4398019170127 -4397631849747 4397631579145 270608 4397637182278 -4397637244547 636599 -636599 501856 -439587 -62269 4397636742691 -4397637165744 -78803 4397638441965 -4397507528788 4397506331370 -4397636484175 4397629223232 -126197 4397629347004 -4397629347867 130363502 -118946824 -11289619 11285528 3074684 -3070590 -12737407 1447784 11289619 -4091 4397618205887 -270608 -4397617935278 -4397638363146 4397629904786 -8458358 8458358 -8458357 8458357 -8458356 -4397631601457 4397638456455 -4397638456455 1608871 71234 4397629921353 8458355 -8458354 -4398018900540 389084534 4397630086607 -4398019171072 389478246 130381609 4397629422217 -4397629971205 4397629983088 6858159 -6858158 -4398027358893 4398019171140 -544946 130926549 4397629971205 -4397629983088 4397629983089 4397638441443 -1600197 -4397629992589 71235 -71235 -4397629451803 4397629451803 -4397629451802 -469542 442366 -442300 442325 -513638 71220 4397629921371 -4397629478953 -513637 513637 -513636 71223 -71224 71232 442405 -513635 513636 -442400 -71234 513635 -442395 -71253 71337 -71337 4397630263196 4397638434191 -6855039 7201031 -4397636652834 -469541 469541 4397636310997 -4398025762002 4398018902807 7201028 -7201028 8458354 4397636652830 -4397636652830 -2127351 4397638780181 4397631849755 1586550 4397636847640 -4397638434189 1646492 -24602 4397630227855 -4397631849744 4397638434192 -4397636787697 -1646496 1621893 -1621895 1741698 4397629837455 -4397631579154 2127352 
Potential of Offsets elements: 28.0477 28.0477 28.0477 28.0477 1089.05 28.0477 28.0477 28.0477 28.0477 28.0477 28.0477 28.0477 40.0477 34.0477 28.0477 28.0477 28.0477 37.0477 41.0477 184.048 28.0477 28.0477 28.0477 28.0477 28.0477 0.478209 28.0477 46.0477 28.0477 28.0477 28.0477 28.0477 28.0477 28.0477 28.0477 28.0477 28.0477 28.0477 28.0477 28.0477 28.0477 28.0477 28.0477 28.0477 28.0477 28.0477 28.0477 189.048 28.0477 28.0477 28.0477 28.0477 28.0477 28.0477 28.0477 28.0477 62.0477 28.0477 28.0477 28.0477 592.048 28.0477 28.0477 28.0477 28.0477 28.0477 28.0477 28.0477 28.0477 28.0477 28.0477 28.0477 28.0477 28.0477 28.0477 28.0477 28.0477 28.0477 28.0477 28.0477 28.0477 28.0477 28.0477 28.0477 28.0477 28.0477 28.0477 28.0477 28.0477 28.0477 28.0477 28.0477 28.0477 1096.05 28.0477 28.0477 28.0477 28.0477 28.0477 28.0477 28.0477 28.0477 28.0477 28.0477 28.0477 28.0477 28.0477 28.0477 28.0477 28.0477 28.0477 28.0477 28.0477 28.0477 28.0477 28.0477 28.0477 28.0477 28.0477 28.0477 28.0477 28.0477 28.0477 28.0477 28.0477 28.0477 28.0477 28.0477 28.0477 28.0477 28.0477 28.0477 28.0477 1096.05 28.0477 28.0477 28.0477 34.0477 28.0477 28.0477 28.0477 28.0477 28.0477 28.0477 28.0477 28.0477 28.0477 28.0477 28.0477 28.0477 28.0477 28.0477 28.0477 30.0477 62.0477 28.0477 28.0477 28.0477 153.048 182.048 28.0477 28.0477 28.0477 28.0477 28.0477 28.0477 28.0477 28.0477 28.0477 28.0477 28.0477 28.0477 28.0477 28.0477 28.0477 28.0477 28.0477 28.0477 28.0477 130.048 28.0477 28.0477 28.0477 28.0477 28.0477 28.0477 28.0477 28.0477 28.0477 28.0477 28.0477 28.0477 28.0477 28.0477 28.0477 28.0477 28.0477 28.0477 28.0477 28.0477 28.0477 28.0477 28.0477 28.0477 28.0477 28.0477 28.0477 28.0477 28.0477 28.0477 28.0477 28.0477 28.0477 28.0477 28.0477 28.0477 28.0477 28.0477 28.0477 128.048 28.0477 28.0477 28.0477 28.0477 28.0477 28.0477 30.0477 28.0477 28.0477 28.0477 28.0477 28.0477 28.0477 28.0477 28.0477 28.0477 28.0477 28.0477 28.0477 28.0477 28.0477 28.0477 28.0477 28.0477 28.0477 28.0477 28.0477 28.0477 28.0477 28.0477 28.0477 28.0477 28.0477 28.0477 28.0477 28.0477 28.0477 28.0477 28.0477 28.0477 28.0477 28.0477 28.0477 28.0477 28.0477 28.0477 28.0477 28.0477 28.0477 28.0477 28.0477 28.0477 28.0477 28.0477 28.0477 28.0477 28.0477 28.0477 28.0477 28.0477 28.0477 28.0477 28.0477 28.0477 28.0477 28.0477 28.0477 28.0477 28.0477 28.0477 28.0477 28.0477 28.0477 28.0477 28.0477 28.0477 28.0477 28.0477 28.0477 28.0477 28.0477 460.048 28.0477 28.0477 28.0477 28.0477 28.0477 28.0477 28.0477 28.0477 28.0477 28.0477 28.0477 28.0477 28.0477 28.0477 28.0477 28.0477 28.0477 28.0477 28.0477 28.0477 28.0477 28.0477 28.0477 28.0477 28.0477 28.0477 28.0477 28.0477 28.0477 28.0477 28.0477 28.0477 28.0477 28.0477 28.0477 28.0477 28.0477 28.0477 28.0477 28.0477 28.0477 28.0477 28.0477 28.0477 28.0477 28.0477 28.0477 28.0477 28.0477 28.0477 28.0477 28.0477 28.0477 28.0477 28.0477 28.0477 28.0477 168.048 28.0477 28.0477 28.0477 28.0477 28.0477 28.0477 28.0477 28.0477 28.0477 28.0477 28.0477 28.0477 28.0477 28.0477 28.0477 28.0477 28.0477 28.0477 28.0477 28.0477 28.0477 28.0477 28.0477 28.0477 28.0477 28.0477 28.0477 28.0477 28.0477 28.0477 28.0477 28.0477 615.048 28.0477 28.0477 28.0477 28.0477 28.0477 28.0477 28.0477 28.0477 28.0477 28.0477 28.0477 28.0477 28.0477 28.0477 28.0477 28.0477 28.0477 28.0477 28.0477 28.0477 28.0477 28.0477 28.0477 28.0477 28.0477 405.048 28.0477 28.0477 28.0477 28.0477 28.0477 28.0477 28.0477 28.0477 28.0477 28.0477 28.0477 28.0477 28.0477 28.0477 28.0477 28.0477 28.0477 28.0477 28.0477 28.0477 28.0477 28.0477 28.0477 28.0477 28.0477 28.0477 796.048 28.0477 28.0477 28.0477 28.0477 28.0477 28.0477 546.048 28.0477 28.0477 28.0477 28.0477 28.0477 28.0477 28.0477 28.0477 28.0477 28.0477 28.0477 28.0477 28.0477 28.0477 28.0477 28.0477 28.0477 28.0477 124.048 28.0477 28.0477 28.0477 28.0477 28.0477 28.0477 28.0477 28.0477 28.0477 28.0477 196.048 343.048 28.0477 28.0477 28.0477 28.0477 28.0477 28.0477 1448.05 28.0477 28.0477 28.0477 28.0477 28.0477 28.0477 28.0477 28.0477 28.0477 28.0477 28.0477 28.0477 28.0477 28.0477 28.0477 28.0477 28.0477 28.0477 28.0477 28.0477 28.0477 28.0477 28.0477 28.0477 28.0477 28.0477 28.0477 28.0477 28.0477 28.0477 28.0477 28.0477 465.048 28.0477 28.0477 28.0477 28.0477 28.0477 28.0477 28.0477 28.0477 28.0477 28.0477 28.0477 28.0477 28.0477 28.0477 28.0477 612.048 28.0477 28.0477 79.0477 209.048 28.0477 28.0477 106.048 28.0477 28.0477 28.0477 28.0477 28.0477 28.0477 28.0477 28.0477 28.0477 28.0477 28.0477 28.0477 28.0477 28.0477 28.0477 28.0477 28.0477 28.0477 28.0477 28.0477 28.0477 28.0477 28.0477 28.0477 28.0477 28.0477 28.0477 28.0477 28.0477 28.0477 28.0477 28.0477 28.0477 28.0477 28.0477 28.0477 28.0477 28.0477 28.0477 28.0477 28.0477 28.0477 28.0477 28.0477 28.0477 28.0477 28.0477 28.0477 28.0477 28.0477 28.0477 28.0477 28.0477 28.0477 28.0477 28.0477 28.0477 28.0477 46.0477 28.0477 28.0477 28.0477 28.0477 28.0477 28.0477 28.0477 28.0477 28.0477 28.0477 28.0477 28.0477 28.0477 28.0477 28.0477 28.0477 28.0477 28.0477 28.0477 28.0477 28.0477 28.0477 28.0477 28.0477 28.0477 28.0477 28.0477 28.0477 28.0477 28.0477 28.0477 28.0477 28.0477 28.0477 28.0477 28.0477 28.0477 28.0477 28.0477 28.0477 28.0477 28.0477 28.0477 28.0477 28.0477 28.0477 28.0477 28.0477 28.0477 28.0477 28.0477 28.0477 28.0477 28.0477 28.0477 28.0477 28.0477 28.0477 28.0477 28.0477 28.0477 28.0477 28.0477 28.0477 28.0477 28.0477 28.0477 28.0477 28.0477 28.0477 28.0477 28.0477 28.0477 28.0477 28.0477 28.0477 28.0477 28.0477 28.0477 28.0477 28.0477 28.0477 28.0477 28.0477 28.0477 28.0477 28.0477 28.0477 28.0477 55.0477 28.0477 28.0477 28.0477 28.0477 28.0477 28.0477 28.0477 28.0477 28.0477 28.0477 28.0477 28.0477 28.0477 28.0477 28.0477 28.0477 28.0477 28.0477 76.0477 28.0477 28.0477 28.0477 28.0477 28.0477 28.0477 28.0477 28.0477 28.0477 28.0477 28.0477 28.0477 28.0477 28.0477 28.0477 28.0477 28.0477 28.0477 28.0477 28.0477 28.0477 28.0477 28.0477 28.0477 28.0477 28.0477 28.0477 28.0477 139.048 28.0477 28.0477 28.0477 28.0477 28.0477 28.0477 28.0477 28.0477 28.0477 28.0477 28.0477 28.0477 28.0477 28.0477 28.0477 28.0477 28.0477 28.0477 28.0477 28.0477 28.0477 28.0477 28.0477 28.0477 28.0477 28.0477 28.0477 28.0477 28.0477 28.0477 28.0477 28.0477 28.0477 28.0477 28.0477 28.0477 28.0477 28.0477 28.0477 28.0477 28.0477 28.0477 28.0477 28.0477 28.0477 28.0477 28.0477 28.0477 28.0477 28.0477 28.0477 28.0477 28.0477 28.0477 28.0477 28.0477 28.0477 28.0477 28.0477 28.0477 28.0477 28.0477 28.0477 28.0477 52.0477 28.0477 28.0477 30.0477 40.0477 28.0477 28.0477 28.0477 28.0477 28.0477 28.0477 28.0477 28.0477 28.0477 28.0477 28.0477 28.0477 28.0477 28.0477 28.0477 28.0477 28.0477 28.0477 28.0477 28.0477 28.0477 28.0477 28.0477 28.0477 28.0477 28.0477 28.0477 28.0477 28.0477 28.0477 28.0477 28.0477 28.0477 28.0477 28.0477 28.0477 28.0477 28.0477 28.0477 28.0477 28.0477 28.0477 28.0477 28.0477 28.0477 28.0477 28.0477 28.0477 28.0477 28.0477 28.0477 28.0477 28.0477 28.0477 28.0477 28.0477 28.0477 28.0477 28.0477 28.0477 28.0477 28.0477 28.0477 28.0477 28.0477 28.0477 28.0477 28.0477 28.0477 28.0477 28.0477 28.0477 28.0477 28.0477 28.0477 28.0477 28.0477 28.0477 28.0477 28.0477 28.0477 28.0477 28.0477 28.0477 28.0477 28.0477 28.0477 28.0477 28.0477 28.0477 28.0477 28.0477 28.0477 28.0477 28.0477 28.0477 28.0477 28.0477 28.0477 28.0477 28.0477 28.0477 28.0477 28.0477 28.0477 28.0477 28.0477 28.0477 28.0477 28.0477 28.0477 28.0477 28.0477 28.0477 28.0477 28.0477 28.0477 28.0477 28.0477 28.0477 28.0477 28.0477 28.0477 28.0477 28.0477 28.0477 28.0477 28.0477 28.0477 28.0477 28.0477 28.0477 28.0477 28.0477 28.0477 28.0477 28.0477 28.0477 28.0477 28.0477 28.0477 28.0477 28.0477 28.0477 28.0477 28.0477 28.0477 28.0477 28.0477 28.0477 28.0477 28.0477 28.0477 28.0477 28.0477 28.0477 28.0477 28.0477 28.0477 28.0477 28.0477 28.0477 28.0477 28.0477 28.0477 28.0477 28.0477 28.0477 889.048 28.0477 28.0477 28.0477 28.0477 28.0477 28.0477 28.0477 28.0477 28.0477 28.0477 28.0477 28.0477 28.0477 28.0477 28.0477 28.0477 28.0477 28.0477 28.0477 28.0477 28.0477 28.0477 28.0477 28.0477 28.0477 28.0477 28.0477 28.0477 28.0477 171.048 454.048 432.048 28.0477 28.0477 28.0477 28.0477 28.0477 28.0477 28.0477 28.0477 28.0477 28.0477 28.0477 28.0477 28.0477 28.0477 28.0477 28.0477 52.0477 28.0477 28.0477 28.0477 28.0477 28.0477 28.0477 28.0477 28.0477 28.0477 28.0477 28.0477 28.0477 28.0477 28.0477 28.0477 28.0477 28.0477 28.0477 28.0477 28.0477 28.0477 28.0477 28.0477 28.0477 28.0477 28.0477 28.0477 28.0477 28.0477 28.0477 28.0477 28.0477 28.0477 28.0477 28.0477 28.0477 28.0477 28.0477 28.0477 28.0477 28.0477 28.0477 28.0477 28.0477 28.0477 28.0477 28.0477 28.0477 28.0477 28.0477 28.0477 28.0477 28.0477 28.0477 28.0477 28.0477 28.0477 28.0477 28.0477 28.0477 28.0477 29.0477 28.0477 28.0477 28.0477 28.0477 28.0477 28.0477 28.0477 28.0477 28.0477 28.0477 28.0477 28.0477 28.0477 28.0477 28.0477 28.0477 28.0477 28.0477 40.0477 28.0477 28.0477 28.0477 28.0477 28.0477 28.0477 28.0477 28.0477 28.0477 28.0477 28.0477 28.0477 28.0477 28.0477 28.0477 28.0477 28.0477 28.0477 28.0477 28.0477 28.0477 28.0477 28.0477 28.0477 28.0477 28.0477 28.0477 28.0477 28.0477 28.0477 28.0477 28.0477 28.0477 28.0477 28.0477 28.0477 28.0477 28.0477 28.0477 28.0477 28.0477 28.0477 28.0477 28.0477 67.0477 28.0477 28.0477 28.0477 28.0477 28.0477 28.0477 28.0477 28.0477 28.0477 28.0477 28.0477 28.0477 28.0477 28.0477 82.0477 28.0477 28.0477 28.0477 28.0477 28.0477 28.0477 28.0477 28.0477 28.0477 28.0477 28.0477 28.0477 28.0477 28.0477 28.0477 28.0477 28.0477 28.0477 28.0477 28.0477 28.0477 28.0477 28.0477 28.0477 28.0477 28.0477 28.0477 28.0477 28.0477 28.0477 28.0477 28.0477 28.0477 28.0477 28.0477 28.0477 28.0477 28.0477 28.0477 28.0477 28.0477 28.0477 28.0477 28.0477 28.0477 28.0477 28.0477 28.0477 28.0477 28.0477 28.0477 28.0477 28.0477 28.0477 28.0477 28.0477 28.0477 28.0477 28.0477 28.0477 28.0477 608.048 28.0477 28.0477 28.0477 28.0477 28.0477 28.0477 28.0477 28.0477 28.0477 28.0477 28.0477 28.0477 28.0477 28.0477 28.0477 28.0477 28.0477 28.0477 28.0477 28.0477 28.0477 28.0477 28.0477 28.0477 28.0477 28.0477 28.0477 28.0477 28.0477 28.0477 28.0477 28.0477 28.0477 28.0477 28.0477 28.0477 43.0477 31.0477 89.0477 54.0477 31.0477 49.0477 53.0477 113.048 28.0477 28.0477 28.0477 28.0477 28.0477 28.0477 52.0477 28.0477 28.0477 28.0477 28.0477 28.0477 28.0477 28.0477 28.0477 28.0477 28.0477 28.0477 28.0477 28.0477 28.0477 28.0477 28.0477 28.0477 28.0477 28.0477 28.0477 28.0477 28.0477 28.0477 28.0477 28.0477 28.0477 28.0477 28.0477 28.0477 28.0477 28.0477 28.0477 44.0477 46.0477 29.0477 34.0477 28.0477 28.0477 28.0477 28.0477 28.0477 28.0477 28.0477 28.0477 28.0477 28.0477 37.0477 28.0477 28.0477 28.0477 28.0477 28.0477 28.0477 28.0477 28.0477 28.0477 28.0477 28.0477 28.0477 28.0477 28.0477 28.0477 28.0477 28.0477 28.0477 28.0477 28.0477 28.0477 28.0477 28.0477 28.0477 28.0477 28.0477 28.0477 28.0477 28.0477 28.0477 28.0477 84.0477 28.0477 28.0477 28.0477 28.0477 28.0477 28.0477 28.0477 28.0477 28.0477 28.0477 28.0477 28.0477 28.0477 28.0477 28.0477 28.0477 28.0477 28.0477 28.0477 28.0477 28.0477 28.0477 28.0477 28.0477 28.0477 28.0477 28.0477 28.0477 28.0477 28.0477 28.0477 28.0477 28.0477 28.0477 28.0477 28.0477 28.0477 28.0477 28.0477 172.048 28.0477 28.0477 28.0477 28.0477 28.0477 28.0477 28.0477 28.0477 28.0477 28.0477 28.0477 28.0477 28.0477 30.0477 28.0477 28.0477 28.0477 28.0477 28.0477 28.0477 28.0477 28.0477 28.0477 28.0477 28.0477 28.0477 28.0477 28.0477 28.0477 28.0477 28.0477 29.0477 28.0477 28.0477 28.0477 28.0477 28.0477 28.0477 28.0477 28.0477 28.0477 28.0477 28.0477 28.0477 28.0477 28.0477 28.0477 28.0477 28.0477 28.0477 28.0477 28.0477 28.0477 28.0477 298.048 28.0477 28.0477 28.0477 28.0477 28.0477 28.0477 28.0477 28.0477 28.0477 28.0477 28.0477 28.0477 28.0477 28.0477 28.0477 28.0477 28.0477 44.0477 28.0477 28.0477 28.0477 28.0477 28.0477 28.0477 28.0477 28.0477 28.0477 28.0477 28.0477 28.0477 28.0477 28.0477 28.0477 28.0477 28.0477 28.0477 28.0477 28.0477 28.0477 28.0477 28.0477 28.0477 28.0477 28.0477 28.0477 28.0477 28.0477 28.0477 28.0477 28.0477 28.0477 28.0477 28.0477 28.0477 28.0477 28.0477 28.0477 28.0477 28.0477 28.0477 28.0477 28.0477 28.0477 28.0477 28.0477 28.0477 28.0477 28.0477 28.0477 28.0477 28.0477 28.0477 28.0477 28.0477 28.0477 28.0477 28.0477 28.0477 28.0477 28.0477 28.0477 28.0477 28.0477 28.0477 28.0477 28.0477 28.0477 77.0477 28.0477 28.0477 28.0477 28.0477 28.0477 28.0477 28.0477 28.0477 28.0477 28.0477 28.0477 28.0477 28.0477 28.0477 28.0477 28.0477 28.0477 28.0477 28.0477 28.0477 28.0477 28.0477 28.0477 28.0477 28.0477 28.0477 28.0477 28.0477 28.0477 28.0477 28.0477 28.0477 28.0477 28.0477 28.0477 28.0477 28.0477 28.0477 28.0477 28.0477 28.0477 28.0477 28.0477 28.0477 28.0477 28.0477 28.0477 28.0477 146.048 64.0477 38.0477 28.0477 28.0477 92.0477 28.0477 28.0477 28.0477 28.0477 28.0477 28.0477 28.0477 28.0477 28.0477 28.0477 28.0477 28.0477 28.0477 28.0477 28.0477 28.0477 28.0477 28.0477 28.0477 28.0477 28.0477 28.0477 28.0477 28.0477 28.0477 28.0477 28.0477 28.0477 28.0477 28.0477 29.0477 28.0477 28.0477 28.0477 28.0477 28.0477 28.0477 28.0477 28.0477 28.0477 28.0477 28.0477 28.0477 28.0477 28.0477 28.0477 28.0477 28.0477 28.0477 28.0477 28.0477 28.0477 28.0477 28.0477 28.0477 28.0477 28.0477 28.0477 28.0477 28.0477 28.0477 28.0477 28.0477 28.0477 28.0477 28.0477 28.0477 28.0477 28.0477 28.0477 28.0477 28.0477 28.0477 28.0477 28.0477 28.0477 28.0477 28.0477 28.0477 28.0477 28.0477 28.0477 28.0477 28.0477 28.0477 28.0477 28.0477 28.0477 28.0477 28.0477 28.0477 28.0477 28.0477 28.0477 28.0477 28.0477 28.0477 28.0477 28.0477 28.0477 28.0477 28.0477 28.0477 28.0477 28.0477 28.0477 28.0477 28.0477 28.0477 28.0477 28.0477 28.0477 28.0477 28.0477 28.0477 28.0477 28.0477 28.0477 28.0477 28.0477 28.0477 28.0477 28.0477 28.0477 28.0477 28.0477 28.0477 28.0477 28.0477 28.0477 28.0477 28.0477 28.0477 28.0477 28.0477 32.0477 29.0477 28.0477 28.0477 28.0477 28.0477 28.0477 28.0477 28.0477 28.0477 100.048 28.0477 28.0477 28.0477 28.0477 28.0477 28.0477 28.0477 28.0477 28.0477 79.0477 28.0477 28.0477 28.0477 50.0477 28.0477 28.0477 28.0477 28.0477 28.0477 28.0477 28.0477 28.0477 28.0477 46.0477 28.0477 28.0477 28.0477 28.0477 28.0477 28.0477 28.0477 28.0477 28.0477 28.0477 28.0477 28.0477 91.0477 28.0477 28.0477 28.0477 28.0477 28.0477 28.0477 28.0477 28.0477 28.0477 28.0477 28.0477 28.0477 28.0477 28.0477 28.0477 28.0477 28.0477 28.0477 28.0477 28.0477 28.0477 28.0477 28.0477 28.0477 28.0477 28.0477 28.0477 28.0477 28.0477 28.0477 28.0477 28.0477 28.0477 48.0477 28.0477 50.0477 28.0477 28.0477 28.0477 28.0477 28.0477 28.0477 1465.13 28.0477 28.0477 28.0477 28.0477 28.0477 28.0477 28.0477 28.0477 28.0477 28.0477 30.0477 28.0477 64.0477 28.0477 28.0477 28.0477 28.0477 28.0477 28.0477 28.0477 28.0477 28.0477 28.0477 28.0477 28.0477 28.0477 28.0477 28.0477 99.0477 28.0477 28.0477 28.0477 28.0477 28.0477 28.0477 28.0477 28.0477 28.0477 38.0477 44.0477 34.0477 28.0477 40.0477 28.0477 28.0477 92.0477 28.0477 28.0477 28.0477 331.048 28.0477 28.0477 40.0477 28.0477 28.0477 28.0477 28.0477 28.0477 28.0477 28.0477 28.0477 32.0477 28.0477 28.0477 28.0477 28.0477 28.0477 28.0477 28.0477 28.0477 28.0477 28.0477 28.0477 28.0477 28.0477 28.0477 28.0477 28.0477 28.0477 28.0477 28.0477 64.0477 100.048 28.0477 28.0477 28.0477 28.0477 28.0477 28.0477 29.0477 32.0477 28.0477 28.0477 28.0477 28.0477 28.0477 28.0477 28.0477 28.0477 28.0477 28.0477 28.0477 28.0477 28.0477 172.048 28.0477 28.0477 28.0477 28.0477 28.0477 28.0477 28.0477 28.0477 28.0477 28.0477 28.0477 34.0477 28.0477 28.0477 28.0477 28.0477 28.0477 28.0477 28.0477 28.0477 28.0477 28.0477 28.0477 28.0477 28.0477 28.0477 28.0477 28.0477 28.0477 28.0477 28.0477 28.0477 28.0477 28.0477 77.0477 28.0477 28.0477 28.0477 28.0477 28.0477 28.0477 28.0477 28.0477 28.0477 28.0477 28.0477 28.0477 28.0477 28.0477 28.0477 28.0477 28.0477 28.0477 28.0477 28.0477 28.0477 28.0477 28.0477 28.0477 28.0477 28.0477 28.0477 28.0477 28.0477 28.0477 28.0477 28.0477 28.0477 316.048 34.0477 28.0477 28.0477 28.0477 28.0477 28.0477 28.0477 28.0477 28.0477 28.0477 28.0477 28.0477 28.0477 28.0477 28.0477 28.0477 28.0477 28.0477 28.0477 28.0477 28.0477 28.0477 28.0477 28.0477 28.0477 28.0477 28.0477 28.0477 28.0477 28.0477 28.0477 28.0477 28.0477 28.0477 28.0477 28.0477 28.0477 28.0477 28.0477 28.0477 28.0477 28.0477 28.0477 28.0477 28.0477 46.0477 38.0477 28.0477 38.0477 28.0477 31.0477 28.0477 28.0477 28.0477 28.0477 28.0477 28.0477 28.0477 28.0477 28.0477 28.0477 28.0477 28.0477 28.0477 28.0477 28.0477 28.0477 28.0477 28.0477 28.0477 28.0477 28.0477 28.0477 28.0477 28.0477 28.0477 28.0477 28.0477 28.0477 28.0477 28.0477 28.0477 28.0477 28.0477 28.0477 28.0477 28.0477 28.0477 28.0477 28.0477 28.0477 28.0477 28.0477 28.0477 28.0477 28.0477 
rewards of Offsets elements: 0 0 0 0 1061 0 0 0 0 0 0 0 12 6 0 0 0 9 13 156 0 0 0 0 0 0 0 18 0 0 0 0 0 0 0 0 0 0 0 0 0 0 0 0 0 0 0 161 0 0 0 0 0 0 0 0 34 0 0 0 564 0 0 0 0 0 0 0 0 0 0 0 0 0 0 0 0 0 0 0 0 0 0 0 0 0 0 0 0 0 0 0 0 1068 0 0 0 0 0 0 0 0 0 0 0 0 0 0 0 0 0 0 0 0 0 0 0 0 0 0 0 0 0 0 0 0 0 0 0 0 0 0 0 1068 0 0 0 6 0 0 0 0 0 0 0 0 0 0 0 0 0 0 0 2 34 0 0 0 125 154 0 0 0 0 0 0 0 0 0 0 0 0 0 0 0 0 0 0 0 102 0 0 0 0 0 0 0 0 0 0 0 0 0 0 0 0 0 0 0 0 0 0 0 0 0 0 0 0 0 0 0 0 0 0 0 0 0 0 0 100 0 0 0 0 0 0 2 0 0 0 0 0 0 0 0 0 0 0 0 0 0 0 0 0 0 0 0 0 0 0 0 0 0 0 0 0 0 0 0 0 0 0 0 0 0 0 0 0 0 0 0 0 0 0 0 0 0 0 0 0 0 0 0 0 0 0 0 0 0 0 0 0 0 0 0 0 0 0 0 0 0 432 0 0 0 0 0 0 0 0 0 0 0 0 0 0 0 0 0 0 0 0 0 0 0 0 0 0 0 0 0 0 0 0 0 0 0 0 0 0 0 0 0 0 0 0 0 0 0 0 0 0 0 0 0 0 0 0 0 140 0 0 0 0 0 0 0 0 0 0 0 0 0 0 0 0 0 0 0 0 0 0 0 0 0 0 0 0 0 0 0 0 587 0 0 0 0 0 0 0 0 0 0 0 0 0 0 0 0 0 0 0 0 0 0 0 0 0 377 0 0 0 0 0 0 0 0 0 0 0 0 0 0 0 0 0 0 0 0 0 0 0 0 0 0 768 0 0 0 0 0 0 518 0 0 0 0 0 0 0 0 0 0 0 0 0 0 0 0 0 0 96 0 0 0 0 0 0 0 0 0 0 168 315 0 0 0 0 0 0 1420 0 0 0 0 0 0 0 0 0 0 0 0 0 0 0 0 0 0 0 0 0 0 0 0 0 0 0 0 0 0 0 0 437 0 0 0 0 0 0 0 0 0 0 0 0 0 0 0 584 0 0 51 181 0 0 78 0 0 0 0 0 0 0 0 0 0 0 0 0 0 0 0 0 0 0 0 0 0 0 0 0 0 0 0 0 0 0 0 0 0 0 0 0 0 0 0 0 0 0 0 0 0 0 0 0 0 0 0 0 0 0 0 0 0 18 0 0 0 0 0 0 0 0 0 0 0 0 0 0 0 0 0 0 0 0 0 0 0 0 0 0 0 0 0 0 0 0 0 0 0 0 0 0 0 0 0 0 0 0 0 0 0 0 0 0 0 0 0 0 0 0 0 0 0 0 0 0 0 0 0 0 0 0 0 0 0 0 0 0 0 0 0 0 0 0 0 0 0 0 0 0 0 0 0 27 0 0 0 0 0 0 0 0 0 0 0 0 0 0 0 0 0 0 48 0 0 0 0 0 0 0 0 0 0 0 0 0 0 0 0 0 0 0 0 0 0 0 0 0 0 0 0 111 0 0 0 0 0 0 0 0 0 0 0 0 0 0 0 0 0 0 0 0 0 0 0 0 0 0 0 0 0 0 0 0 0 0 0 0 0 0 0 0 0 0 0 0 0 0 0 0 0 0 0 0 0 0 0 0 0 0 0 0 0 0 0 0 24 0 0 2 12 0 0 0 0 0 0 0 0 0 0 0 0 0 0 0 0 0 0 0 0 0 0 0 0 0 0 0 0 0 0 0 0 0 0 0 0 0 0 0 0 0 0 0 0 0 0 0 0 0 0 0 0 0 0 0 0 0 0 0 0 0 0 0 0 0 0 0 0 0 0 0 0 0 0 0 0 0 0 0 0 0 0 0 0 0 0 0 0 0 0 0 0 0 0 0 0 0 0 0 0 0 0 0 0 0 0 0 0 0 0 0 0 0 0 0 0 0 0 0 0 0 0 0 0 0 0 0 0 0 0 0 0 0 0 0 0 0 0 0 0 0 0 0 0 0 0 0 0 0 0 0 0 0 0 0 0 0 0 0 0 0 0 0 0 0 0 0 0 861 0 0 0 0 0 0 0 0 0 0 0 0 0 0 0 0 0 0 0 0 0 0 0 0 0 0 0 0 0 143 426 404 0 0 0 0 0 0 0 0 0 0 0 0 0 0 0 0 24 0 0 0 0 0 0 0 0 0 0 0 0 0 0 0 0 0 0 0 0 0 0 0 0 0 0 0 0 0 0 0 0 0 0 0 0 0 0 0 0 0 0 0 0 0 0 0 0 0 0 0 0 0 0 0 0 0 0 0 0 0 1 0 0 0 0 0 0 0 0 0 0 0 0 0 0 0 0 0 0 12 0 0 0 0 0 0 0 0 0 0 0 0 0 0 0 0 0 0 0 0 0 0 0 0 0 0 0 0 0 0 0 0 0 0 0 0 0 0 0 0 0 0 0 0 39 0 0 0 0 0 0 0 0 0 0 0 0 0 0 54 0 0 0 0 0 0 0 0 0 0 0 0 0 0 0 0 0 0 0 0 0 0 0 0 0 0 0 0 0 0 0 0 0 0 0 0 0 0 0 0 0 0 0 0 0 0 0 0 0 0 0 0 0 0 0 0 0 0 0 0 0 580 0 0 0 0 0 0 0 0 0 0 0 0 0 0 0 0 0 0 0 0 0 0 0 0 0 0 0 0 0 0 0 0 0 0 0 0 15 3 61 26 3 21 25 85 0 0 0 0 0 0 24 0 0 0 0 0 0 0 0 0 0 0 0 0 0 0 0 0 0 0 0 0 0 0 0 0 0 0 0 0 0 0 0 16 18 1 6 0 0 0 0 0 0 0 0 0 0 9 0 0 0 0 0 0 0 0 0 0 0 0 0 0 0 0 0 0 0 0 0 0 0 0 0 0 0 0 0 0 0 56 0 0 0 0 0 0 0 0 0 0 0 0 0 0 0 0 0 0 0 0 0 0 0 0 0 0 0 0 0 0 0 0 0 0 0 0 0 0 0 144 0 0 0 0 0 0 0 0 0 0 0 0 0 2 0 0 0 0 0 0 0 0 0 0 0 0 0 0 0 0 0 1 0 0 0 0 0 0 0 0 0 0 0 0 0 0 0 0 0 0 0 0 0 0 270 0 0 0 0 0 0 0 0 0 0 0 0 0 0 0 0 0 16 0 0 0 0 0 0 0 0 0 0 0 0 0 0 0 0 0 0 0 0 0 0 0 0 0 0 0 0 0 0 0 0 0 0 0 0 0 0 0 0 0 0 0 0 0 0 0 0 0 0 0 0 0 0 0 0 0 0 0 0 0 0 0 0 0 0 0 0 0 49 0 0 0 0 0 0 0 0 0 0 0 0 0 0 0 0 0 0 0 0 0 0 0 0 0 0 0 0 0 0 0 0 0 0 0 0 0 0 0 0 0 0 0 0 0 0 0 0 118 36 10 0 0 64 0 0 0 0 0 0 0 0 0 0 0 0 0 0 0 0 0 0 0 0 0 0 0 0 0 0 0 0 0 0 1 0 0 0 0 0 0 0 0 0 0 0 0 0 0 0 0 0 0 0 0 0 0 0 0 0 0 0 0 0 0 0 0 0 0 0 0 0 0 0 0 0 0 0 0 0 0 0 0 0 0 0 0 0 0 0 0 0 0 0 0 0 0 0 0 0 0 0 0 0 0 0 0 0 0 0 0 0 0 0 0 0 0 0 0 0 0 0 0 0 0 0 0 0 0 0 0 0 0 0 0 0 0 0 0 4 1 0 0 0 0 0 0 0 0 72 0 0 0 0 0 0 0 0 0 51 0 0 0 22 0 0 0 0 0 0 0 0 0 18 0 0 0 0 0 0 0 0 0 0 0 0 63 0 0 0 0 0 0 0 0 0 0 0 0 0 0 0 0 0 0 0 0 0 0 0 0 0 0 0 0 0 0 0 0 0 20 0 22 0 0 0 0 0 0 1465 0 0 0 0 0 0 0 0 0 0 2 0 36 0 0 0 0 0 0 0 0 0 0 0 0 0 0 0 71 0 0 0 0 0 0 0 0 0 10 16 6 0 12 0 0 64 0 0 0 303 0 0 12 0 0 0 0 0 0 0 0 4 0 0 0 0 0 0 0 0 0 0 0 0 0 0 0 0 0 0 0 36 72 0 0 0 0 0 0 1 4 0 0 0 0 0 0 0 0 0 0 0 0 0 144 0 0 0 0 0 0 0 0 0 0 0 6 0 0 0 0 0 0 0 0 0 0 0 0 0 0 0 0 0 0 0 0 0 0 49 0 0 0 0 0 0 0 0 0 0 0 0 0 0 0 0 0 0 0 0 0 0 0 0 0 0 0 0 0 0 0 0 0 288 6 0 0 0 0 0 0 0 0 0 0 0 0 0 0 0 0 0 0 0 0 0 0 0 0 0 0 0 0 0 0 0 0 0 0 0 0 0 0 0 0 0 0 0 0 18 10 0 10 0 3 0 0 0 0 0 0 0 0 0 0 0 0 0 0 0 0 0 0 0 0 0 0 0 0 0 0 0 0 0 0 0 0 0 0 0 0 0 0 0 0 0 0 0 0 0 Printing Sanity3
offset_index value2097
offset list size2097
reward size2097
potential size2097
-----------------------------------------------------------------------------------------------------------------------------------------------------------------------------------------------------

DRAM Statistics
 CHANNEL 0
 RQ ROW_BUFFER_HIT:      54573  ROW_BUFFER_MISS:     242589
 DBUS_CONGESTED:        120
 WQ ROW_BUFFER_HIT:      29435  ROW_BUFFER_MISS:     176861  FULL:          0

 AVG_CONGESTED_CYCLE: 4
 All warmup complete: 2
Channel 0 Bank busy for read cycles: 0
Channel 0 Bank busy for write cycles: 0
Channel 0
Rank 0
0banks busy for read cycles: 418304845
0banks busy for write cycles: 117723
1banks busy for read cycles: 27699605
1banks busy for write cycles: 16741003
2banks busy for read cycles: 3911679
2banks busy for write cycles: 3817793
3banks busy for read cycles: 556818
3banks busy for write cycles: 1343112
4banks busy for read cycles: 219163
4banks busy for write cycles: 705726
5banks busy for read cycles: 71115
5banks busy for write cycles: 451806
6banks busy for read cycles: 41013
6banks busy for write cycles: 286343
7banks busy for read cycles: 28040
7banks busy for write cycles: 207122
8banks busy for read cycles: 31217
8banks busy for write cycles: 194170

CPU 0 Branch Prediction Accuracy: 99.7309% MPKI: 0.485 Average ROB Occupancy at Mispredict: 31.1278
Branch types
NOT_BRANCH: 163956018 81.978%
BRANCH_DIRECT_JUMP: 1914726 0.957363%
BRANCH_INDIRECT: 9756590 4.87829%
BRANCH_CONDITIONAL: 17653766 8.82688%
BRANCH_DIRECT_CALL: 2648257 1.32413%
BRANCH_INDIRECT_CALL: 697289 0.348645%
BRANCH_RETURN: 3373114 1.68656%
BRANCH_OTHER: 0 0%

DRAM PAGES: 1048576
Allocated PAGES: 5460
