
*** ChampSim Multicore Out-of-Order Simulator ***

Warmup Instructions: 50000000
Simulation Instructions: 200000000
Number of CPUs: 1
LLC sets: 2048
LLC ways: 16
Off-chip DRAM Size: 4096 MB Channels: 1 Width: 64-bit Data Rate: 6400 MT/s
CPU 0 runs traces/spec2k17/srv_72.champsimtrace.xz
.xz
BTB has LRU replacement policy
ITLB has LRU replacement policy
DTLB has LRU replacement policy
STLB has LRU replacement policy
L1I has LRU replacement policy
L1D has LRU replacement policy
Initialize SRRIP state for L2C
Initialize DRRIP state for LLC
Heartbeat CPU 0 instructions: 10000002 cycles: 2830842 heartbeat IPC: 3.53252 cumulative IPC: 3.53252 (Simulation time: 0 hr 0 min 33 sec) 
Heartbeat CPU 0 instructions: 20000002 cycles: 5657692 heartbeat IPC: 3.53751 cumulative IPC: 3.53501 (Simulation time: 0 hr 1 min 6 sec) 
Heartbeat CPU 0 instructions: 30000002 cycles: 8484960 heartbeat IPC: 3.53698 cumulative IPC: 3.53567 (Simulation time: 0 hr 1 min 42 sec) 
*** Reached end of trace for Core: 0 Repeating trace: traces/spec2k17/srv_72.champsimtrace.xz
Heartbeat CPU 0 instructions: 40000003 cycles: 11307668 heartbeat IPC: 3.5427 cumulative IPC: 3.53742 (Simulation time: 0 hr 2 min 14 sec) 
Heartbeat CPU 0 instructions: 50000001 cycles: 14130266 heartbeat IPC: 3.54283 cumulative IPC: 3.5385 (Simulation time: 0 hr 2 min 48 sec) 

Warmup complete CPU 0 instructions: 50000001 cycles: 14130266 (Simulation time: 0 hr 2 min 48 sec) 

Offsets elements: 
Potential of Offsets elements: 
rewards of Offsets elements: 
Printing Sanity1
offset list size2069
Offsets elements: 
Potential of Offsets elements: 
rewards of Offsets elements: 0 0 0 1044 184 1064 184 6 30 0 0 0 1015 1137 0 0 1201 1207 0 0 775 0 0 0 0 0 1572 0 0 0 0 26 0 0 0 0 0 0 0 0 0 0 0 0 0 0 429 0 0 16 0 0 0 628 1167 0 0 0 0 0 0 0 0 0 0 0 0 0 0 0 0 3 0 0 0 0 60 17 0 0 0 549 0 0 0 0 118 106 0 1 0 0 1401 0 0 339 0 0 0 0 0 0 0 0 244 0 0 0 0 0 0 3 26 0 0 0 0 0 0 0 0 0 0 0 0 0 0 231 0 0 0 0 0 0 434 0 0 0 0 0 0 0 96 0 0 0 0 0 0 0 0 0 79 189 364 0 0 55 0 710 0 0 0 0 0 0 0 56 34 0 2 163 0 0 0 0 0 0 0 0 0 0 0 0 0 0 0 0 0 0 53 0 3 0 24 0 0 0 0 0 0 0 0 0 0 0 228 0 335 147 0 184 0 0 0 0 0 0 0 0 0 0 0 0 0 0 0 0 0 0 0 0 0 0 3 0 0 0 0 56 1008 53 0 10 0 0 0 0 0 0 0 0 1 0 8 0 0 0 0 0 0 0 0 0 0 0 0 0 0 0 0 0 0 0 2 30 0 5 0 0 0 0 0 0 0 0 0 0 0 0 0 0 153 0 0 0 0 0 0 0 0 0 0 0 0 0 0 0 0 0 0 0 0 0 0 4 27 3 0 0 0 0 0 0 0 0 0 0 0 477 0 0 22 9 0 0 0 0 122 0 0 68 13 0 0 0 0 0 0 0 0 0 0 0 0 0 6 49 0 0 0 0 0 0 0 1122 1763 40 1 0 0 0 0 0 0 0 0 0 0 47 0 0 0 0 0 0 0 0 0 798 0 0 0 23 0 0 2 51 315 0 0 0 0 0 0 0 0 0 0 43 93 0 0 4 2 0 0 0 162 0 0 3 0 0 0 0 0 0 0 0 0 0 0 0 0 0 0 238 0 0 0 1 0 0 0 0 0 0 0 0 106 0 0 0 14 0 0 0 0 0 38 51 0 0 57 0 0 0 0 0 0 0 0 0 0 0 0 0 1 0 0 0 0 0 0 0 12 30 0 0 0 0 0 0 0 0 0 0 6 0 0 38 0 0 0 0 0 0 0 0 1 0 0 0 0 0 0 0 0 936 0 88 0 0 0 0 30 0 0 0 33 0 0 0 0 0 0 0 0 0 0 0 0 0 0 0 0 0 0 0 0 0 0 0 0 0 0 0 0 49 0 32 54 0 0 0 0 0 50 0 0 14 0 0 0 0 0 0 7 0 0 0 244 34 0 0 0 0 0 0 0 326 0 0 0 0 0 0 0 0 132 0 0 0 0 0 0 0 2 2 0 0 0 0 0 0 0 0 65 0 0 0 0 0 0 0 393 0 0 0 0 0 0 0 0 0 0 0 0 0 0 0 162 0 0 0 0 0 0 0 0 0 0 0 182 0 0 0 0 0 0 0 0 0 0 0 0 0 0 0 0 0 0 559 0 0 0 0 0 0 0 0 0 12 56 38 0 0 0 0 0 0 0 108 0 0 0 0 0 0 0 0 0 0 0 0 0 0 0 0 0 0 0 0 0 0 0 190 0 0 0 0 0 14 14 0 0 0 7 0 0 0 468 0 7 0 0 0 0 0 0 0 0 0 0 0 0 0 156 0 0 0 0 0 0 0 0 0 0 0 0 0 0 0 60 2 0 0 0 364 0 85 4 423 34 0 0 0 0 0 0 0 0 0 0 0 0 0 0 0 0 0 0 0 0 0 0 0 0 0 0 10 0 0 0 915 649 0 0 40 0 4 54 0 0 0 0 0 0 0 0 0 0 0 0 0 0 0 159 0 0 0 0 0 0 0 0 0 0 0 0 0 0 0 0 0 469 0 0 16 0 0 0 22 0 0 99 0 0 0 0 0 0 0 0 0 0 0 0 0 0 0 0 0 0 0 0 0 0 0 0 6 0 0 20 0 149 286 0 0 100 441 216 70 164 31 0 0 0 0 0 0 0 0 0 0 0 0 0 0 0 0 0 0 0 0 0 200 0 0 0 0 0 0 0 0 0 11 0 162 45 91 0 0 0 10 0 0 0 0 0 0 0 0 0 0 0 26 0 0 0 0 0 0 0 0 0 0 0 0 0 0 0 0 0 0 0 402 2 0 0 0 2 0 0 0 0 22 0 0 0 0 0 0 0 0 0 0 0 0 0 0 0 56 51 0 0 0 32 0 0 0 0 0 0 0 0 9 0 84 0 0 0 0 0 0 0 0 0 0 0 0 0 14 0 0 0 3 0 0 0 410 0 0 0 0 0 4 9 0 0 0 0 186 0 0 0 5 0 9 0 0 0 13 8 0 13 0 64 0 0 0 0 0 0 5 0 48 0 108 0 0 0 0 0 0 0 0 0 0 0 0 0 0 0 0 0 0 38 0 1123 0 0 52 0 0 0 0 204 219 0 0 0 0 0 0 0 0 0 0 0 0 0 0 0 0 0 0 0 0 0 0 0 168 0 0 0 0 2 0 78 12 0 0 0 0 0 0 0 0 0 0 0 81 138 0 0 0 0 0 0 0 0 74 0 0 0 0 0 0 78 4 0 0 0 0 0 0 88 0 20 308 46 16 2 0 0 0 11 5 2 0 0 0 0 0 0 0 0 0 0 0 200 0 94 0 0 0 0 0 0 0 0 0 0 0 0 0 0 0 0 0 16 0 48 0 0 0 2 0 0 0 0 0 0 0 0 0 0 1 0 0 0 0 0 0 0 0 0 0 0 0 0 0 0 1 0 0 0 0 0 0 0 201 54 0 105 6 0 0 0 0 0 0 0 0 0 0 0 0 0 0 0 0 0 0 0 0 0 20 0 0 0 0 0 0 0 0 0 0 0 0 0 8 9 0 0 74 0 0 96 0 0 0 0 0 0 0 0 0 0 0 0 0 4 0 0 0 0 0 0 0 0 0 0 0 0 0 0 0 0 0 0 6 57 4 0 0 0 0 0 0 0 0 0 0 0 0 0 0 0 0 0 0 0 0 0 3 0 0 16 0 0 0 0 0 0 0 0 0 0 0 693 16 98 3 0 0 0 0 0 0 0 0 0 0 0 0 0 0 0 0 0 0 0 0 0 0 0 0 0 0 0 0 0 0 0 0 0 0 0 2 0 0 0 432 0 0 0 0 18 0 0 30 0 0 0 0 0 0 0 6 0 0 0 0 0 0 0 0 0 0 0 0 0 0 0 0 0 0 0 0 0 0 0 0 2 6 0 20 18 40 0 0 50 0 0 0 0 0 0 0 0 0 88 0 0 0 0 0 0 0 0 0 0 0 0 0 0 0 0 0 0 0 0 0 0 46 1166 0 0 0 1 0 10 0 0 0 0 0 0 0 0 0 0 0 0 495 0 0 0 0 16 0 0 0 0 0 0 0 0 0 0 0 0 0 0 0 714 0 0 0 120 0 5 0 0 0 0 0 0 0 0 0 0 0 0 0 3 0 0 0 0 0 0 0 0 0 0 0 0 0 0 0 0 0 0 0 54 0 0 0 0 0 0 11 0 0 0 0 0 0 0 0 0 0 0 0 0 0 0 0 24 0 0 0 0 0 0 0 0 0 0 0 0 0 0 0 89 9 0 0 0 11 0 0 0 0 0 169 0 0 0 0 0 0 0 0 0 0 1 0 0 0 0 0 0 0 0 0 0 0 0 0 336 40 82 0 0 0 12 0 0 36 0 0 180 4 0 0 0 0 0 0 0 0 0 0 0 0 0 0 364 0 0 0 0 0 0 0 0 0 0 0 0 0 0 1 0 0 2 0 0 0 0 0 23 0 0 0 0 0 3 0 0 0 0 0 2 0 0 53 0 16 0 0 0 1 0 0 0 0 17 0 0 1 0 0 57 0 0 128 0 164 0 0 0 0 0 0 0 0 0 0 0 0 0 0 0 114 0 0 0 0 0 0 0 0 0 0 0 0 0 0 0 0 14 0 0 0 0 2 64 28 589 0 0 0 0 0 0 0 0 0 0 0 0 0 0 0 0 0 0 0 0 0 0 0 0 0 0 0 0 0 0 0 0 0 0 0 0 0 0 538 288 25 138 0 5 70 0 0 0 0 0 0 0 0 0 0 0 0 0 32 18 0 0 0 33 0 0 0 0 0 0 0 0 0 0 0 0 0 0 4 0 5 0 0 6 0 0 0 0 0 0 0 0 0 0 0 0 0 0 0 0 0 0 0 0 0 0 0 0 0 0 0 0 0 0 0 0 0 0 0 96 3 0 0 0 66 129 0 0 1 0 0 0 0 0 0 0 0 0 0 0 0 0 0 44 0 0 0 0 0 0 0 0 0 0 0 0 0 0 0 0 54 0 28 0 0 0 0 0 0 0 0 0 0 0 0 0 0 0 0 0 0 0 0 0 0 0 0 0 0 0 0 0 0 0 0 0 0 0 0 0 0 0 0 0 0 0 0 0 0 0 0 0 0 0 0 0 0 0 0 0 336 12 0 0 0 0 0 0 0 0 0 0 0 0 0 1 0 0 0 0 0 13 0 0 0 0 0 0 0 0 76 0 0 0 164 0 0 0 16 0 0 16 6 0 0 0 0 0 0 0 0 0 0 0 0 0 0 0 0 0 0 12 11 0 
Printing Sanity2
Heartbeat CPU 0 instructions: 60000001 cycles: 47399426 heartbeat IPC: 0.300579 cumulative IPC: 0.300579 (Simulation time: 0 hr 3 min 56 sec) 
*** Reached end of trace for Core: 0 Repeating trace: traces/spec2k17/srv_72.champsimtrace.xz
Heartbeat CPU 0 instructions: 70000001 cycles: 80559963 heartbeat IPC: 0.301563 cumulative IPC: 0.30107 (Simulation time: 0 hr 5 min 1 sec) 
Heartbeat CPU 0 instructions: 80000002 cycles: 113754627 heartbeat IPC: 0.301253 cumulative IPC: 0.301131 (Simulation time: 0 hr 6 min 8 sec) 
Heartbeat CPU 0 instructions: 90000002 cycles: 146975071 heartbeat IPC: 0.301019 cumulative IPC: 0.301103 (Simulation time: 0 hr 7 min 18 sec) 
*** Reached end of trace for Core: 0 Repeating trace: traces/spec2k17/srv_72.champsimtrace.xz
Heartbeat CPU 0 instructions: 100000002 cycles: 180117683 heartbeat IPC: 0.301726 cumulative IPC: 0.301228 (Simulation time: 0 hr 8 min 22 sec) 
Heartbeat CPU 0 instructions: 110000000 cycles: 213258351 heartbeat IPC: 0.301744 cumulative IPC: 0.301314 (Simulation time: 0 hr 9 min 27 sec) 
Heartbeat CPU 0 instructions: 120000000 cycles: 246436602 heartbeat IPC: 0.301402 cumulative IPC: 0.301326 (Simulation time: 0 hr 10 min 34 sec) 
*** Reached end of trace for Core: 0 Repeating trace: traces/spec2k17/srv_72.champsimtrace.xz
Heartbeat CPU 0 instructions: 130000000 cycles: 279574166 heartbeat IPC: 0.301772 cumulative IPC: 0.301382 (Simulation time: 0 hr 11 min 42 sec) 
Heartbeat CPU 0 instructions: 140000000 cycles: 312750136 heartbeat IPC: 0.301423 cumulative IPC: 0.301387 (Simulation time: 0 hr 12 min 50 sec) 
Heartbeat CPU 0 instructions: 150000000 cycles: 345945242 heartbeat IPC: 0.301249 cumulative IPC: 0.301373 (Simulation time: 0 hr 13 min 57 sec) 
*** Reached end of trace for Core: 0 Repeating trace: traces/spec2k17/srv_72.champsimtrace.xz
Heartbeat CPU 0 instructions: 160000000 cycles: 379079111 heartbeat IPC: 0.301806 cumulative IPC: 0.301412 (Simulation time: 0 hr 15 min 3 sec) 
Heartbeat CPU 0 instructions: 170000001 cycles: 412188419 heartbeat IPC: 0.30203 cumulative IPC: 0.301463 (Simulation time: 0 hr 16 min 1 sec) 
Heartbeat CPU 0 instructions: 180000000 cycles: 445319526 heartbeat IPC: 0.301831 cumulative IPC: 0.301492 (Simulation time: 0 hr 16 min 46 sec) 
*** Reached end of trace for Core: 0 Repeating trace: traces/spec2k17/srv_72.champsimtrace.xz
Heartbeat CPU 0 instructions: 190000001 cycles: 478423646 heartbeat IPC: 0.302077 cumulative IPC: 0.301533 (Simulation time: 0 hr 17 min 36 sec) 
Heartbeat CPU 0 instructions: 200000001 cycles: 511564739 heartbeat IPC: 0.30174 cumulative IPC: 0.301547 (Simulation time: 0 hr 18 min 18 sec) 
Heartbeat CPU 0 instructions: 210000000 cycles: 544727095 heartbeat IPC: 0.301547 cumulative IPC: 0.301547 (Simulation time: 0 hr 19 min 0 sec) 
*** Reached end of trace for Core: 0 Repeating trace: traces/spec2k17/srv_72.champsimtrace.xz
Heartbeat CPU 0 instructions: 220000000 cycles: 577844249 heartbeat IPC: 0.301958 cumulative IPC: 0.301571 (Simulation time: 0 hr 19 min 41 sec) 
Heartbeat CPU 0 instructions: 230000000 cycles: 610941006 heartbeat IPC: 0.302144 cumulative IPC: 0.301603 (Simulation time: 0 hr 20 min 23 sec) 
Heartbeat CPU 0 instructions: 240000000 cycles: 644055742 heartbeat IPC: 0.30198 cumulative IPC: 0.301623 (Simulation time: 0 hr 21 min 7 sec) 
Heartbeat CPU 0 instructions: 250000002 cycles: 677186151 heartbeat IPC: 0.301838 cumulative IPC: 0.301634 (Simulation time: 0 hr 21 min 51 sec) 
Finished CPU 0 instructions: 200000001 cycles: 663055885 cumulative IPC: 0.301634 (Simulation time: 0 hr 21 min 51 sec) 

ChampSim completed all CPUs

Region of Interest Statistics

CPU 0 cumulative IPC: 0.301634 instructions: 200000001 cycles: 663055885
ITLB TOTAL     ACCESS:   35333693  HIT:   32918959  MISS:    2414734  HIT %:    93.1659  MISS %:    6.83408   MPKI: 12.0737
ITLB LOAD TRANSLATION ACCESS:   35333693  HIT:   32918959  MISS:    2414734  HIT %:    93.1659  MISS %:    6.83408   MPKI: 12.0737
ITLB PREFETCH  REQUESTED:          0  ISSUED:          0  USEFUL:          0  USELESS:          0
ITLB USEFUL LOAD PREFETCHES:          0 PREFETCH ISSUED TO LOWER LEVEL:          0  ACCURACY: -nan
ITLB TIMELY PREFETCHES:          0 LATE PREFETCHES: 0 DROPPED PREFETCHES: 0
ITLB PREFETCHES SAME FILL-ORIGIN LEVEL: 0 DIFFERENT FILL-ORIGIN LEVEL: 0
ITLB AVERAGE MISS LATENCY: 9.00435 cycles
ITLB RQ	ACCESS:   41876503	FORWARD:          0	MERGED:    5987656	TO_CACHE:   35888847

DTLB TOTAL     ACCESS:   47220451  HIT:   45249660  MISS:    1970791  HIT %:    95.8264  MISS %:     4.1736   MPKI: 9.85395
DTLB LOAD TRANSLATION ACCESS:   47220451  HIT:   45249660  MISS:    1970791  HIT %:    95.8264  MISS %:     4.1736   MPKI: 9.85395
DTLB PREFETCH  REQUESTED:          0  ISSUED:          0  USEFUL:          0  USELESS:          0
DTLB USEFUL LOAD PREFETCHES:          0 PREFETCH ISSUED TO LOWER LEVEL:          0  ACCURACY: -nan
DTLB TIMELY PREFETCHES:          0 LATE PREFETCHES: 0 DROPPED PREFETCHES: 0
DTLB PREFETCHES SAME FILL-ORIGIN LEVEL: 0 DIFFERENT FILL-ORIGIN LEVEL: 0
DTLB AVERAGE MISS LATENCY: 9.02861 cycles
DTLB RQ	ACCESS:   62443167	FORWARD:          0	MERGED:   15172161	TO_CACHE:   47271006

STLB TOTAL     ACCESS:    6514734  HIT:    6513511  MISS:       1223  HIT %:    99.9812  MISS %:  0.0187728   MPKI: 0.006115
STLB LOAD TRANSLATION ACCESS:    4385525  HIT:    4384302  MISS:       1223  HIT %:    99.9721  MISS %:  0.0278872   MPKI: 0.006115
STLB TRANSLATION FROM L1D PREFETCHER ACCESS:    2129209  HIT:    2129209  MISS:          0  HIT %:        100  MISS %:          0   MPKI: 0
STLB PREFETCH  REQUESTED:          0  ISSUED:          0  USEFUL:          0  USELESS:          0
STLB USEFUL LOAD PREFETCHES:          0 PREFETCH ISSUED TO LOWER LEVEL:          0  ACCURACY: -nan
STLB TIMELY PREFETCHES:          0 LATE PREFETCHES: 0 DROPPED PREFETCHES: 107
STLB PREFETCHES SAME FILL-ORIGIN LEVEL: 0 DIFFERENT FILL-ORIGIN LEVEL: 0
STLB AVERAGE MISS LATENCY: 29.6247 cycles
STLB RQ	ACCESS:    6514841	FORWARD:          0	MERGED:          0	TO_CACHE:    6514841

STLB Hit, L1D data hit: 0
STLB Hit, L2C data hit: 0
STLB Hit, LLC data hit: 0
STLB Hit, LLC data miss: 0
STLB STLB hints to L2: 0
L1D TOTAL     ACCESS:   62707005  HIT:   58325804  MISS:    4381201  HIT %:    93.0132  MISS %:    6.98678   MPKI: 21.906
L1D LOAD      ACCESS:   34505346  HIT:   31295002  MISS:    3210344  HIT %:    90.6961  MISS %:     9.3039   MPKI: 16.0517
L1D RFO       ACCESS:   26072451  HIT:   24901595  MISS:    1170856  HIT %:    95.5092  MISS %:    4.49078   MPKI: 5.85428
L1D PREFETCH  ACCESS:    2129208  HIT:    2129207  MISS:          1  HIT %:        100  MISS %: 4.69658e-05   MPKI: 5e-06
AGUS PREFETCH L1 MISS: 0
L1D PREFETCH  REQUESTED:    4294861  ISSUED:    4294861  USEFUL:          0  USELESS:          0
L1D USEFUL LOAD PREFETCHES:          0 PREFETCH ISSUED TO LOWER LEVEL:          1  ACCURACY: 0
L1D TIMELY PREFETCHES:          0 LATE PREFETCHES: 0 DROPPED PREFETCHES: 107
L1D PREFETCHES SAME FILL-ORIGIN LEVEL: 1 DIFFERENT FILL-ORIGIN LEVEL: 0
L1D AVERAGE MISS LATENCY: 16.6326 cycles
L1D RQ	ACCESS:   47115805	FORWARD:          0	MERGED:   12127697	TO_CACHE:   34634907
L1D WQ	ACCESS:   27957224	FORWARD:     353201	MERGED:     148964	TO_CACHE:   27808260
L1D PQ	ACCESS:    2165545	FORWARD:          0	MERGED:      36229	TO_CACHE:    2129316

L1D UNIQUE REGIONS ACCESSED: 0
L1D REGIONS CONFLICTS: 0
L1D Cross Page Prefetch Requests: 115
L1D Same Page Prefetch Requests: 2165430
L1D ROI Sum of L1D PQ occupancy: 27734421
L1D PREFETCHES PUSHED FROM L2C: 0
L1I TOTAL     ACCESS:   40143456  HIT:   28018746  MISS:   12124710  HIT %:    69.7965  MISS %:    30.2035   MPKI: 60.6235
L1I LOAD      ACCESS:   40143456  HIT:   28018746  MISS:   12124710  HIT %:    69.7965  MISS %:    30.2035   MPKI: 60.6235
L1I PREFETCH  REQUESTED:          0  ISSUED:          0  USEFUL:          0  USELESS:          0
L1I USEFUL LOAD PREFETCHES:          0 PREFETCH ISSUED TO LOWER LEVEL:          0  ACCURACY: -nan
L1I TIMELY PREFETCHES:          0 LATE PREFETCHES: 0 DROPPED PREFETCHES: 0
L1I PREFETCHES SAME FILL-ORIGIN LEVEL: 0 DIFFERENT FILL-ORIGIN LEVEL: 0
L1I AVERAGE MISS LATENCY: 15.0104 cycles
L1I RQ	ACCESS:   58832030	FORWARD:          0	MERGED:   16955527	TO_CACHE:   41876503

BTB TOTAL     ACCESS:   30217395  HIT:   16754579  MISS:   13462816  HIT %:    55.4468  MISS %:    44.5532   MPKI: 67.3141
BTB BRANCH_DIRECT_JUMP	ACCESS:    1948775  HIT:    1081587  MISS:     867188
BTB BRANCH_INDIRECT	ACCESS:   12729317  HIT:    7598469  MISS:    5130848
BTB BRANCH_CONDITIONAL	ACCESS:    5646163  HIT:    4270714  MISS:    1375449
BTB BRANCH_DIRECT_CALL	ACCESS:    4157362  HIT:    1954239  MISS:    2203123
BTB BRANCH_INDIRECT_CALL	ACCESS:     789217  HIT:     387763  MISS:     401454
BTB BRANCH_RETURN	ACCESS:    4946561  HIT:    1461807  MISS:    3484754
BTB BRANCH_OTHER ACCESS:          0  HIT:          0  MISS:          0

L2C TOTAL     ACCESS:   18775339  HIT:   18140923  MISS:     634416  HIT %:     96.621  MISS %:    3.37899   MPKI: 3.17208
L2C LOAD      ACCESS:   15334374  HIT:   14767787  MISS:     566587  HIT %:    96.3051  MISS %:    3.69488   MPKI: 2.83293
L2C DATA LOAD MPKI: 0.941365
L2C INSTRUCTION LOAD MPKI: 1.89157
L2C RFO       ACCESS:    1170856  HIT:    1129341  MISS:      41515  HIT %:    96.4543  MISS %:     3.5457   MPKI: 0.207575
L2C PREFETCH  ACCESS:          1  HIT:          0  MISS:          1  HIT %:          0  MISS %:        100   MPKI: 5e-06
AGUS PREFETCH L1 MISS: 0
L2C DATA PREFETCH MPKI: 5e-06
L2C INSTRUCTION PREFETCH MPKI: 0
L2C WRITEBACK ACCESS:    2268774  HIT:    2242888  MISS:      25886  HIT %:     98.859  MISS %:    1.14097   MPKI: 0.12943
L2C LOAD TRANSLATION ACCESS:       1227  HIT:        801  MISS:        426  HIT %:    65.2812  MISS %:    34.7188   MPKI: 0.00213
L2C TRANSLATION FROM L1D PREFETCHER ACCESS:        107  HIT:        106  MISS:          1  HIT %:    99.0654  MISS %:   0.934579   MPKI: 5e-06
L2C PREFETCH  REQUESTED:          0  ISSUED:          0  USEFUL:          1  USELESS:          1
L2C USEFUL LOAD PREFETCHES:          1 PREFETCH ISSUED TO LOWER LEVEL:          1  ACCURACY: 100
L2C TIMELY PREFETCHES:          1 LATE PREFETCHES: 0 DROPPED PREFETCHES: 0
L2C PREFETCHES SAME FILL-ORIGIN LEVEL: 0 DIFFERENT FILL-ORIGIN LEVEL: 0
L2C AVERAGE MISS LATENCY: 28.9883 cycles
L2C RQ	ACCESS:   16507244	FORWARD:          0	MERGED:          0	TO_CACHE:   16506564
L2C WQ	ACCESS:    2268774	FORWARD:        680	MERGED:          0	TO_CACHE:    2268774
L2C PQ	ACCESS:          1	FORWARD:          0	MERGED:          0	TO_CACHE:          1

L2C Instructions Evicting Data 116587
L2C Translations Evicting Data 339
L2C Data Evicting Data 128760
L2C Instructions Evicting Instructions 261594
L2C Translations Evicting Instructions 74
L2C Data Evicting Instructions 100739
L2C Instructions Evicting Translations 133
L2C Translations Evicting Translations 14
L2C Data Evicting Translations 290
L2C Dense regions hint from L2: 0
PSCL5 TOTAL     ACCESS:       1223  HIT:       1223  MISS:          0  HIT %:        100  MISS %:          0   MPKI: 0
PSCL5 LOAD TRANSLATION ACCESS:       1223  HIT:       1223  MISS:          0  HIT %:        100  MISS %:          0   MPKI: 0
PSCL5 PREFETCH  REQUESTED:          0  ISSUED:          0  USEFUL:          0  USELESS:          0
PSCL5 USEFUL LOAD PREFETCHES:          0 PREFETCH ISSUED TO LOWER LEVEL:          0  ACCURACY: -nan
PSCL5 TIMELY PREFETCHES:          0 LATE PREFETCHES: 0 DROPPED PREFETCHES: 0
PSCL5 PREFETCHES SAME FILL-ORIGIN LEVEL: 0 DIFFERENT FILL-ORIGIN LEVEL: 0

PSCL4 TOTAL     ACCESS:       1223  HIT:       1223  MISS:          0  HIT %:        100  MISS %:          0   MPKI: 0
PSCL4 LOAD TRANSLATION ACCESS:       1223  HIT:       1223  MISS:          0  HIT %:        100  MISS %:          0   MPKI: 0
PSCL4 PREFETCH  REQUESTED:          0  ISSUED:          0  USEFUL:          0  USELESS:          0
PSCL4 USEFUL LOAD PREFETCHES:          0 PREFETCH ISSUED TO LOWER LEVEL:          0  ACCURACY: -nan
PSCL4 TIMELY PREFETCHES:          0 LATE PREFETCHES: 0 DROPPED PREFETCHES: 0
PSCL4 PREFETCHES SAME FILL-ORIGIN LEVEL: 0 DIFFERENT FILL-ORIGIN LEVEL: 0

PSCL3 TOTAL     ACCESS:       1223  HIT:       1223  MISS:          0  HIT %:        100  MISS %:          0   MPKI: 0
PSCL3 LOAD TRANSLATION ACCESS:       1223  HIT:       1223  MISS:          0  HIT %:        100  MISS %:          0   MPKI: 0
PSCL3 PREFETCH  REQUESTED:          0  ISSUED:          0  USEFUL:          0  USELESS:          0
PSCL3 USEFUL LOAD PREFETCHES:          0 PREFETCH ISSUED TO LOWER LEVEL:          0  ACCURACY: -nan
PSCL3 TIMELY PREFETCHES:          0 LATE PREFETCHES: 0 DROPPED PREFETCHES: 0
PSCL3 PREFETCHES SAME FILL-ORIGIN LEVEL: 0 DIFFERENT FILL-ORIGIN LEVEL: 0

PSCL2 TOTAL     ACCESS:       1223  HIT:       1219  MISS:          4  HIT %:    99.6729  MISS %:   0.327065   MPKI: 2e-05
PSCL2 LOAD TRANSLATION ACCESS:       1223  HIT:       1219  MISS:          4  HIT %:    99.6729  MISS %:   0.327065   MPKI: 2e-05
PSCL2 PREFETCH  REQUESTED:          0  ISSUED:          0  USEFUL:          0  USELESS:          0
PSCL2 USEFUL LOAD PREFETCHES:          0 PREFETCH ISSUED TO LOWER LEVEL:          0  ACCURACY: -nan
PSCL2 TIMELY PREFETCHES:          0 LATE PREFETCHES: 0 DROPPED PREFETCHES: 0
PSCL2 PREFETCHES SAME FILL-ORIGIN LEVEL: 0 DIFFERENT FILL-ORIGIN LEVEL: 0

LLC TOTAL     ACCESS:     660529  HIT:     659723  MISS:        806  HIT %:     99.878  MISS %:   0.122023   MPKI: 0.00403
LLC LOAD      ACCESS:     566587  HIT:     565784  MISS:        803  HIT %:    99.8583  MISS %:   0.141726   MPKI: 0.004015
LLC RFO       ACCESS:      41515  HIT:      41515  MISS:          0  HIT %:        100  MISS %:          0   MPKI: 0
LLC PREFETCH  ACCESS:          1  HIT:          0  MISS:          1  HIT %:          0  MISS %:        100   MPKI: 5e-06
AGUS PREFETCH L1 MISS: 0
LLC WRITEBACK ACCESS:      51999  HIT:      51999  MISS:          0  HIT %:        100  MISS %:          0   MPKI: 0
LLC LOAD TRANSLATION ACCESS:        426  HIT:        425  MISS:          1  HIT %:    99.7653  MISS %:   0.234742   MPKI: 5e-06
LLC TRANSLATION FROM L1D PREFETCHER ACCESS:          1  HIT:          0  MISS:          1  HIT %:          0  MISS %:        100   MPKI: 5e-06
LLC PREFETCH  REQUESTED:          0  ISSUED:          0  USEFUL:          0  USELESS:          0
LLC USEFUL LOAD PREFETCHES:          0 PREFETCH ISSUED TO LOWER LEVEL:          1  ACCURACY: 0
LLC TIMELY PREFETCHES:          0 LATE PREFETCHES: 0 DROPPED PREFETCHES: 0
LLC PREFETCHES SAME FILL-ORIGIN LEVEL: 0 DIFFERENT FILL-ORIGIN LEVEL: 0
LLC AVERAGE MISS LATENCY: 167.146 cycles
LLC RQ	ACCESS:     608529	FORWARD:          0	MERGED:          0	TO_CACHE:     608529
LLC WQ	ACCESS:      51999	FORWARD:          0	MERGED:          0	TO_CACHE:      51999
LLC PQ	ACCESS:          1	FORWARD:          0	MERGED:          0	TO_CACHE:          1

LLC Dense regions hint to LLC: 0

RAW hits: 1544504
Loads Generated: 48660309
Loads sent to L1D: 47115805
Stores Generated: 27957206
Stores sent to L1D: 27957224
Major fault: 0 Minor fault: 1236
Allocated PAGES: 1236
ucb ended
-----------------------------------------------------------------------------------------------------------------------------------------------------------------------------------------------------
Offsets elements: 2200619172283 -2200619174943 2200619174955 -6 -7 1 -12 -2200619174931 2200619139174 -2200619139174 2200619174941 39522 -1 2 -39516 39518 -2 3 -37916 37911 5 -2200619141267 2200619180784 -77431 -156596 194510 -4 39521 -77433 37906 -194502 -2200618979595 -845 2200619174949 -20 -35757 35772 -35772 35757 75293 -75293 35780 -35779 35775 -35777 35774 -35774 75294 -75294 75291 -39518 39520 35753 4 -5 -35749 -2200619114626 2200619150378 -35754 75288 -75287 32328 -32327 -3744262021 3739760267 14868639 -10291599 -75288 -2200619138607 2200614636860 -3739760310 3754628936 -14868626 14868626 -10291596 -39513 -21 17 -2200619174948 2200619174948 39516 -3 -2200619213659 -810 39515 -39515 -18 15 -109071 -2200619148242 2200619296833 -39512 7 39517 -39514 -10 -2200619174096 2200619213621 -39524 -2200619174097 2200619174103 -2200619213618 2200619213617 -39519 12 39526 39514 -39522 2200619174097 39524 -39541 23 -46207 -2200619127897 2200619174105 -2200619214464 2200619174950 -2200619174139 2200619174123 39531 -37909 -156594 194509 -77435 194505 37917 -17 21 -37914 37912 -37911 77442 -234036 234036 -13 -39520 -37910 37919 -2200619174954 2200619214468 -39538 -37894 -16 37893 -37890 -2200619112485 39538 -77434 37908 -37907 -156572 156571 9 2200619174943 6 77433 37918 20 -23 8 -213322 213319 39540 -39537 -12849375 12888909 -39526 -15 -109056 -2200619148241 2200619257310 -9 2200619213623 -39525 -2200619174745 2200629501191 -10286924 -39523 39523 10286922 -10286922 10326446 -10326446 2506 -10289429 -2200619214269 2200619214268 10291421 -2200629505689 2200629504263 -3072 3072 -10289994 10329518 -2200629504460 2200629504460 -10329518 10329520 10289994 -10289995 10289993 -10289993 -46194 -72465876803 72465962545 -39528 16 37909 -8 39525 -39544 -16074 55617 -39542 -2200619150376 2200619150381 -39543 10345040 -2200629472974 2200619183551 -55617 -12888917 12873650 15265 -55623 38 10344995 -10289415 -55626 55626 55631 -288223780701820745 -79 -1465993202723 1465993202724 -1465992322839 -879890 -199807 1465993402652 -1465993402541 1465995990061 -1465995968607 48953 -54698 164658 -180483 1465993402530 2587642 -2587643 -1061223 181327 -199519 1465995935524 -2533199 -78 288223780712110508 -10345315 -2200619275607 2200619275607 -146215 146215 -51234 -384124 621906 15264 -15265 15262 -12888918 12873651 -2200619281385 2200606407734 12849366 2200619150379 16074 10289423 2200619183552 -39546 14 37914 -77438 77443 234035 -39529 -2200619214472 2200619214474 -37915 37894 -37896 21820 -21818 37896 -2200619150375 39541 77436 -156571 234006 -77436 77434 -39545 -55618 -2200619150379 -10289423 -2200619183551 12888917 -15266 -40356 55630 -288223780701820824 79 -1465993202724 1465993202747 -1465993402553 1465993402546 2587626 -2587641 -1465992363652 1465992363674 -1465993222070 -180448 17938 1020906 17939 -17974 1465993402548 2587624 -2587625 -1465993402546 198815 -198818 1465993402549 2587623 -2587624 -1465992363671 -1049428 1049429 -1038876 1465993203730 -1465993402549 20623 1465995969549 -2587520 21470 48939 -70409 29423 -7965 48954 -70523 1465993402550 2587622 -2587623 2587621 -2587621 -1465993402550 -1465993384110 140330 1465993243780 -1465993402554 1465993402631 2587541 -1465995834960 -155212 1465993402551 156598 1465995833574 -1465995990172 1465995990172 -1465995833284 -167785 10894 -1465993402631 1465993402547 2587625 -1465993247336 1465995834960 -54699 1058241 -1074066 -1465993402548 -1465995989929 1465995978542 -1465995962523 1465995962523 11387 -2587627 -1465993386283 138862 -155124 2587520 -1465995990061 70409 -48954 -21566 15825 1465993386720 -1465993332016 -48958 1465995968601 -1465994916106 4840 -923782 -1465995833863 1465993246236 -1465993247421 1186 917756 -917756 1465993246235 -1465993402545 -1465994911261 1465992323632 -1465993402543 -2587630 -1465993402542 -48955 -21565 1465993386717 -1465993332017 1465995968602 -1465995792142 880884 -1078660 -182419 1465993584708 2529261 -1465996113968 1261071 1465992323638 -1465992323638 1465992323637 -1465993247419 918942 -917755 -156311 -2587628 -1465993402544 1465993402544 2587628 -1465993247420 -917754 -1188 -917753 -1189 -917752 -1190 -917751 -1191 -1465992328478 -1073829 1073829 1465992328478 -1465992328477 -1465993245948 292 -1694 -165682 11204 1073351 -2932032459235 2932031540362 -718 -1465995989886 1465995931508 58386 -58033 53072 -2582666 -139390 1058243 1465992327097 -1465992328481 1465992328481 -1465992328482 -917468 290 -167782 167785 4106 -171836 171836 19941 -191675 191675 -180938 1465993386721 -1465993332023 -48953 -1465995833632 -138385 -17912 -1465995958714 1465993382473 -1465993382475 1465993382475 -1465993247352 -2932031540360 2932031385884 286 -1465995942280 1465995995696 4961 -58386 -2529593 -1465992328480 1465992328480 -1465993402547 -1465993245660 1465993245661 -1465993247354 -166549 168242 -290 1465993245951 -1465993245951 1465993245950 -1465992306943 -935562 -163532 1465993406036 -1465995809689 1465993222070 -55 -1465993402498 180483 1465995809689 -2587684 55 -180234 180234 1465993222004 -1465992328423 -917467 -156568 17035 1058386 -918853 -140431 1059283 -918806 42170 -204081 5267 198814 1465995791358 -1465995792210 -197962 1465993402488 2587684 -2587687 -1465993402489 156644 1465995833528 -1465995791358 -42170 -156644 -1465995833528 1465993245833 -1465993402477 -2587696 -2587693 -1465992328411 1223 -1086574 1086574 -1058582 -27993 1086575 1465992327177 56 1465993222014 1465993222006 -1465993402259 180246 1465993402531 2587641 -1465995989934 180245 1465993222047 -42 -2587683 -1465993402249 1465993402292 -19 19 -1465993402289 1465993402270 2576389 -2576390 -1465993402253 -181684 1465993583935 11 -1465993402254 1465993402272 -1465993583958 -1465993385429 1057006 -1057190 1057190 922307 -1078906 17961 246 1465993384282 -1465993385433 180889 1465993204543 -1465993402481 17941 1465993384516 64 1465993402498 2587674 -1465993402304 -2587674 1465993222016 180484 1465995809688 -11 -1465993222014 -2587685 -1465993402487 -2587673 -1465993402499 -17965 -1465993402652 111 1465995919652 1465993386654 2587694 -1465995919649 1465993380913 -1465993199885 -373168 1465993573052 -1465993222000 1465993221999 -180235 180235 1465993221997 -351054 1465993573051 -1465993221997 -180244 -183092 363336 -363336 1465993585333 -1465993573051 1465993573053 1465993222000 373168 1465993199886 -1465993402482 -1465993332132 -70520 1465993402479 -1465993402368 1465993402367 -1465995968591 1465993380902 -1465993366390 1465993366389 -1465995919648 1465993331957 -1465993402479 1465993402485 2587687 -2587689 -1465993222015 1465993402487 2587685 -2587686 10 2587683 -1465992328422 -922308 1465992327062 -1465993402512 1465993402511 2587661 -1465995990158 16144 1465993386354 -1465993402511 27 -1465993402274 1465993402247 -1465993402483 1465993402483 2587689 -2587690 29 -27 -1465993402485 -1465993402247 1465993402248 1465993402482 2587690 -2587691 -1465993402473 1465993402472 -1465993386331 1465993386331 -1465993245839 1465993402481 2587691 -1465993247270 -1465995833573 1465993245883 -1465993203669 -852 1465993204521 1465993402486 2587686 -1465993402484 1465993402489 13 -1465993402500 -1465993402488 1074066 1465994916106 -1465995973296 1465993385635 -1465992323606 1465992323606 -1465992328433 -922307 1465993245900 -1465992323592 1465992323605 1465993402459 2587713 -2587660 1465993402221 -1465993402458 1465993402457 2587715 -1465995989933 1078668 1465992323552 -1465993402459 -2587714 -1465993402460 1465993402499 2587673 -1465995809688 -180245 -238 -1465993402220 1465993221974 -1465993402456 1465993402456 2587716 -2587717 -1465993402216 1465993402219 -1465993402215 1465995978659 -2576444 -1465993402457 1465993386630 -1465993331930 -1465994911423 1465992323709 42 -2587672 -4398024787626 2932031385126 -1465995919652 1465993386626 -1465993331929 -48952 1465995968603 -2587721 -1465993245027 1465993245076 2932031385364 -2932031385364 4398024787578 -1465993402452 1465993402453 2587719 -2587719 -1465992323704 1465992323706 -1465992323706 1465992323747 1465993221969 -1465993402453 -1465993221969 -180246 1465993221965 1465993402451 2587721 -2587722 -2587720 -1465993573021 170808 -182611 1465993584826 44 1465993402211 -1465993221965 1465993221966 -1465993402449 -1465993402451 -1465996160742 1465993573069 -1465993386626 1465993386625 -1465993331928 1465993380882 1095376 1465992306885 1465993221968 -2587716 -1465992323707 -1465993221966 -1465993221967 1249323 -1078753 1078749 -2932032463875 4398027375298 -1465995832748 921326 -1078750 -4398027375298 81 2932031385045 1465993402449 2587723 -2587724 -1465992323697 -2932032463876 2932032463879 1465992323698 -2587723 1465993402458 2587714 -2587715 -1465994911419 -157424 -2932031385045 2932032463795 1465994911422 -2932031385126 4398024787576 -1465992323700 1465994911421 -2932032463879 4398024787582 1465992323701 -1465992323710 2932031385171 -45 -1465996160127 169955 -1465994894557 -1095574 1078708 16865 -16865 1465992323705 -1465993402410 1095570 1465992306841 -1465993402455 1465993402455 2587717 -1465992306841 -1095376 1465992306835 -1465992306835 -1465993402450 -1465992306840 1095614 1465994894558 -1095614 -1465993402339 15714 54695 48960 1003546 -1074033 1465993402414 1465992306837 -1465994916102 -1074070 -1465993402211 -1465993402447 1465993402447 2587725 -2587726 -1465993402208 1073833 1465992328377 -1465992328377 1465993402450 2587722 -1465992328385 -1078751 1465993407129 -1465992306836 -1095615 1465993386623 -1465995834948 940391 1465992306836 -1465992306839 -1100221 1100221 1465992306838 -1465993407059 159830 -4647 -21581 -1465993366449 1465995954172 -1095578 21532 48952 1465993331929 -1465993402340 1465993402339 8064 1465993372811 -1465993380884 -70522 1465993386631 -1465993331933 1465992306845 1095615 1465994894557 -1465992306843 1465992306850 -1465992306850 -1106760 11145 1465994911423 -1465994894558 1465992306840 -1465993402454 1465993402454 2587718 -2587718 -1095375 1095375 -1274596 179221 -1274595 178981 1074070 1465994916102 -1465992328382 1078751 1465993407134 1465993407133 1083431 -1465994911422 170570 -16866 -921325 1465993245032 1465993402460 2587712 -2587713 -1465993384260 -725 180466 -179741 -197948 1465995958714 -1465995970101 135123 -11204 10486 53424 -2529683 -1465992328444 -1074067 1465995990166 -1465996058155 1465993470495 -59 -1465993402418 16673 1465993385780 -1465992327198 1465992327198 -1086576 1086576 22 -22 85 -85 1058609 -26 -1075291 -1465994914881 1058582 -1086577 1086577 -1075043 159344 1465993242857 158 -1465993243014 1465993242858 -1465993242858 873349 -834118 1465993203627 -1465993203557 -70 1465993203625 -1465993203555 876398 -917864 -157179 159343 -159591 36 1086622 -1058465 -16591 1465993402328 -1465993384463 1465993384307 -1465993385744 -24 -1075293 1075292 -1058584 1465995973464 -1465994914882 -11534 170878 1465993243015 -834048 2552 -41853 39241 1465993203616 -1465993203617 876459 -1075044 201197 -2612 -41392 1465993245008 35 -35 -1465993402205 1465993402263 -25 -1465992327197 1465993413773 1075255 -1058419 -28157 90 -90 1058585 28 -1075322 16708 1465995989925 -1465996001459 915701 -42352 42353 -876401 -39302 -159343 1465993242859 -1465993201006 -201445 1465993402452 -1465993245024 1465995832744 -1465995989923 -1465992328384 -1086575 11285 -1465992327222 1465992327160 -1465992327158 1465992327159 -1465992327162 -1465993402446 -62 2587720 -1465992327161 1465992327163 -1465993413738 1465992327158 -1465992327157 1465992327157 -1465993572602 170150 16013 1465993386346 -1465993386346 1465993386252 -1465993386252 182507 -198527 -1465993203745 1465993203688 -1465993203687 -182508 -16012 16011 -16259 57 -1074061 -1465993384545 1465993384488 33 -33 -1465992327166 18 92 -92 1058616 -29 -1075295 1075294 -1058586 -16461 1465992327316 -1465993413893 1465993242860 -1465992369511 42354 -915703 -159344 39232 -198823 -1465993245009 1465993245010 32 24 161276 1465995828896 -1465993241236 -161036 161036 1465993241236 -1465993241234 1465993241234 -56 -1465993241178 902233 -1063271 -1465992339000 1465992339000 -1063512 34 31 -1465992328421 1465993385611 -1465992323581 -4840 1465995931853 -345 58378 -4961 -2582754 54 1465993402220 -1465993402217 1465992323551 -1465992323551 -1465993241210 1465993241233 -1465992323605 1078669 -1078668 1465994899879 -2576274 -1465992323549 1465992323549 -1465995832167 -158005 -1465992328390 -1056135 138667 1465993245860 -1465993245570 -156888 1465995990169 -1465995989925 155836 1465993246523 -94 -1465993402265 1465993402266 -1465993246426 59409 -59409 59402 1465993187024 -1465993187024 1465993187023 -1465993402271 1465993186967 -1465993246368 -156083 215485 -59405 -155835 -248 917467 -1056392 138924 878002 -878823 5425 -172457 172474 1465993240934 -1465992328378 -1056145 1060994 -922317 -138669 -17929 -1465994914720 -1075452 1465993402444 2587728 -2587731 -1465993402440 -2587727 -1465993402463 -2587707 -16862 -4687 -805 1465993246382 -1465993402465 -1465993380890 -5740 1465993386629 181028 1465993199857 -1465995990133 653 -692 -1465995832172 1465993244422 -1465993402422 1465993402421 2587751 -2792 1465993247213 -1465993242429 -159990 1465993402417 2587755 -2587755 1465993402416 -1465993244416 1465993244417 -2587754 -1465993242427 1465993242432 -1465993242432 42378 1465993200048 1465993242429 -1465993402417 -1465995830181 -159744 159744 1465993242425 190 -1465993242614 -159992 1465993386591 -1465993331893 -1465994894550 -935630 38994 -198983 159988 -159743 1465993402418 2587754 -1465993200047 -42380 42379 -4594 1465993204646 -1465993402421 1465993386592 -1465993331895 -1465994894553 1465992306802 -1465992306798 1465992306797 -1465993200051 -202369 -2587749 -1465993200054 -202131 202131 1465993200054 -1465993200052 836413 1465992363639 -185312 1465993385363 -1465993402429 -1465995787618 1465993199875 -1465993199869 1465993199869 1465992306798 -1465993372773 1465993372772 -1465995968603 1465993331900 -1465992306804 2932032463875 -1078749 1465992306803 -1465993402179 -1465992306799 1465992306799 -1465993402415 2587758 -1465992306803 -1278466 1278466 -1264927 1465993571730 -2587757 -1465992306800 16862 -937614 -1465993402416 1465993402428 -1465993384298 -18076 17912 -17275 17275 138921 1465993241421 -1465993413256 1465993413262 -1465993402424 -2587753 40 2932031543127 -158001 158000 1465995832172 1465993402424 2587748 1465993247214 2587750 -1465995830182 -1465993244421 -1465993242434 42380 -202370 -1465992306810 1465995989934 1465993402420 -1465996173024 183091 13539 1465993571735 -1465993402423 1465995832171 1465992323671 -1465993384217 -722 180463 1465993204510 1465993386598 -1465993331899 -1465995792150 -197704 -318 1465992306810 1465992306808 -2587750 -1465993402184 1465993402419 -1465992306805 1465992306806 -1465992306808 -1095374 -1465993402420 -1465993386594 54697 1465993380849 2587753 1465992306807 -2587751 -1465992306807 1095377 1465993402422 -897590 -197784 1465995978545 -1465995776416 -4344 1465995792147 -1465995787803 1465995776417 -1465995776417 1465993204397 2576363 1465993200052 935625 -2587748 -32 -1465992306811 1465992306812 -1465993199874 836226 -836227 893065 -893065 -202554 1465993402423 -1465993372777 1465995960527 132032 -4779 1465993204654 -1465993366330 1465995954079 1465993331904 -1465993402427 -2587747 -1465993331925 1465995919648 -1465994916130 -1074042 1074043 1465992328403 1465993386622 -1465993331924 -1465994957275 41145 -156834 160901 -160264 -11227 171492 1465993241489 1465993386621 -1465993331923 -1465994957245 1465992369523 -1465993331919 -1465994914738 1465992327013 -1465994957237 41109 -1074044 1465993380874 -1465992327027 -1075418 1465993402446 -1465993386621 1465995974347 -2587725 -1465992328405 1465992328406 -1465992369516 -1032935 -1465993372840 1465995960566 -1465993331922 -48956 48955 -70526 -1465993372923 1465995960649 1003521 -1465993402209 -1465995820789 916047 1465994916129 -11386 -1465995820790 1465992328404 2576338 -2576339 2587726 -1465992328407 -1074045 -1465994916129 -1074043 1465993386624 -1465993331927 -1465995832761 -157164 157756 1465993244603 -1465993244603 1465993244446 -1465993244446 43526 -201529 -1465993331926 -1465995832744 -157428 158003 1465995832168 157757 1465993244441 -1465993244443 -43526 -158004 1465993402448 2587724 -1465993402199 157755 1465993244447 1465992328407 -876020 -209266 209266 1465993204427 -1465992328408 -1465993413694 1085286 11244 -2587712 21573 -16863 -1078752 -1465995833574 293 917177 1465992328385 -1465993385249 1056863 -1060786 1465993384493 -1465993245572 -139214 138393 -172456 10964 -912566 1465995828672 4893 -172466 167565 172464 -161500 2587660 -1465995828680 -161509 -1465993402464 -1465995990058 21480 1465993381058 -1465993402540 21450 1465993380898 -1465993402349 15612 1465993365264 -1465993379194 14299 -14300 1465993379194 -1465993402347 23152 -1670 -21469 -21562 -1465993386634 -1465992328399 -156599 1074042 1465994916130 -198022 -11244 1465996001416 1465993386628 -1465993331931 1465993247231 -1465993204433 1465993413699 1465993204432 1465993380884 -1465994916195 1465992328482 -1465993247235 42798 1465993204437 -181036 1465993583257 -1465993402221 378820 1465993413703 -2587700 -1465992328495 -1073739 1465993402234 -1073977 -1465993372851 1465995960569 -1465993380888 48956 1465993331932 -1465993366454 -70521 -1465993402224 1465993402233 -1465992323558 1465992323558 -1465993402472 -1465995972683 1056556 -41146 25 1086620 -42437 1465992369558 -1465992369558 -871940 -171492 871940 -1465992328413 -876018 -198024 4067 1465993241497 -1465993204432 209268 -1465995792147 871934 -1069958 38034 897598 1465992306829 -1465992332493 -913420 -167284 10746 -111 -1465993380881 1465993380880 -1465993386622 -1465995919642 134966 920154 -920154 917529 156540 1465995833632 -156540 -1465994955361 -1034808 1034808 -1034564 1034564 1465992367628 167 -1465992367794 1034563 -833366 1465993200995 -1465993245901 1465993402441 2587731 882302 -813342 -225502 -1465995766151 427 -63231 -167198 231479 -225498 -1465995765728 -224444 1465993402437 2587735 -2587736 -1465993176938 -1086 1097 -1096 121 965 -1069 -224437 -1465995996161 1465993408430 -1465993176932 1465993176933 -1465993408430 1465993408429 1465993402440 2587732 -2587733 -1465993176930 -1088 254573 -253472 253472 -253474 -1061 1055 -25753 25756 26848 1088 -1100 110 1465993177919 -1465993178030 1099 1465993176931 -1050 -224448 -1465993384233 -51 179793 -41409 -1346 -165680 -2582770 1465993402445 2587727 -2587730 -1465993245902 1465993245906 1038843 1465994951329 -1465994951125 -203 56894 -1095486 1095485 -1095736 -1465993372798 968322 -1038844 -2587728 -1465993402444 -1465992325759 -1087432 10740 -1095622 1465993402443 2587729 -1465993402441 1465993402442 -1465993402330 1465993386618 -1465995968606 48961 1052406 1465992328469 -1465992306829 1465992306824 -1465992306824 -1095385 1095384 1465992306823 -1465993402445 -1465992306823 -1465992306822 -1095384 1095385 1465992306819 -1465992306818 1465992306820 -1465993402442 -1465992325751 -156538 1073977 1465994916195 -1465992328469 1073739 -1465992328466 1465992328467 2587730 1465992328470 2729 1465992325721 -1465993519227 117026 -117026 1465993519228 -1465993402439 1073728 2740 -1465992328460 1076479 -1465993402202 1465993402202 -2587732 1465992325726 -1465992325726 1465992325727 -1465993519231 117025 -117025 1465993519233 -1465992328472 -1465993372843 -1465995968601 1006165 66233 1465992259494 -1465994847218 1465992259493 -1465993402443 225502 1465995764674 -1465995765724 1050 224444 1465995765728 -2587738 -1465992259481 -987749 1465993247245 -1465992259495 1465992259488 -1465993176934 -225508 -1465993402369 18075 1124802 -917447 851292 -851296 -1465992259487 -1142950 225498 -1465995765760 -1091 109 -24659 25636 917451 -943100 939026 4069 -917442 663977 -254575 1101 -25645 876942 -852393 -25756 25757 944306 -917452 851288 -851284 -1476 1481 917457 -1142960 1142959 -943101 1465995790314 -1465994913378 1465992325649 -1465992325645 -37917 40830 63243 1465992259489 -1465992322732 -9642 -31188 104072 -66244 600 -600 2401 -40829 -63243 -3001 -6644 6644 599 -599 2402 -63242 -3002 3001 31187 72885 -6641 7241 1465992322733 1465992322732 225503 1465995764669 -1465995790314 25640 105 -24655 -25649 870208 68813 -1205429 1143348 -851297 -225503 199858 -1465994913372 -6732 -844558 844557 -844557 -225511 -2587752 -1465993176916 851291 1465992325625 -1465992332357 81566 -926136 -25755 26856 -1465992325624 -6729 1465992332374 -1465992250808 1465992250809 -1465992325646 1465992325647 -1465992332374 -8681 -9382 667 -667 -65577 65577 9348 -8698 9316 65609 -8706 74925 -69804 69834 -8711 -61123 -5121 -69831 61122 -61122 -5122 5122 5123 -5123 1465992320610 1465992250810 -1465992259482 -72887 72887 -66161 74840 -8679 8680 -1465992259490 -1142955 1070068 1465994920104 -1465994838538 8704 69804 -68171 -857962 926131 -951776 1465993202586 -1465992325649 -1076795 -2587729 -1465992325740 -1076706 -1465994913480 66258 -1142954 1465993402436 -1465992259486 1465992259487 -1465995764670 1465993177985 2587743 -1465994847222 -987753 987752 2587736 -2587737 -1465992325743 1465992325750 -1076465 1081593 -5126 -1087431 1087431 -1076692 1142950 1465994847222 1465993402432 2587740 1465992259481 -1465993176933 -1054 1465993177980 -987746 987750 1465992259480 -2587741 -1465993402437 -1465994906707 -1083465 1465993402435 2587737 -1465993402436 -1465992325735 -1087433 1087458 -14 -1465994951328 104107 1465993177999 108 -24658 917441 -913378 917454 -72890 -844565 74834 -926131 -851289 835284 -835283 1465993176935 -1465992259492 -917446 1465993176939 -1465992363604 -1038843 -1465994894436 1038796 203 -1039047 1465995960564 -1465993380879 48958 1025092 
Potential of Offsets elements: 28.3004 28.3004 28.3004 1072.3 212.3 1092.3 212.3 34.3004 58.3004 28.3004 28.3004 28.3004 1043.3 1165.3 28.3004 28.3004 1229.3 1235.3 28.3004 28.3004 803.3 28.3004 28.3004 28.3004 28.3004 28.3004 1572.11 28.3004 28.3004 28.3004 28.3004 54.3004 28.3004 28.3004 28.3004 28.3004 28.3004 28.3004 28.3004 28.3004 28.3004 28.3004 28.3004 28.3004 28.3004 28.3004 457.3 28.3004 28.3004 44.3004 28.3004 28.3004 28.3004 656.3 1195.3 28.3004 28.3004 28.3004 28.3004 28.3004 28.3004 28.3004 28.3004 28.3004 28.3004 28.3004 28.3004 28.3004 28.3004 28.3004 28.3004 31.3004 28.3004 28.3004 28.3004 28.3004 88.3004 45.3004 28.3004 28.3004 28.3004 577.3 28.3004 28.3004 28.3004 28.3004 146.3 134.3 28.3004 29.3004 28.3004 28.3004 1429.3 28.3004 28.3004 367.3 28.3004 28.3004 28.3004 28.3004 28.3004 28.3004 28.3004 28.3004 272.3 28.3004 28.3004 28.3004 28.3004 28.3004 28.3004 31.3004 54.3004 28.3004 28.3004 28.3004 28.3004 28.3004 28.3004 28.3004 28.3004 28.3004 28.3004 28.3004 28.3004 28.3004 28.3004 259.3 28.3004 28.3004 28.3004 28.3004 28.3004 28.3004 462.3 28.3004 28.3004 28.3004 28.3004 28.3004 28.3004 28.3004 124.3 28.3004 28.3004 28.3004 28.3004 28.3004 28.3004 28.3004 28.3004 28.3004 107.3 217.3 392.3 28.3004 28.3004 83.3004 28.3004 738.3 28.3004 28.3004 28.3004 28.3004 28.3004 28.3004 28.3004 84.3004 62.3004 28.3004 30.3004 191.3 28.3004 28.3004 28.3004 28.3004 28.3004 28.3004 28.3004 28.3004 28.3004 28.3004 28.3004 28.3004 28.3004 28.3004 28.3004 28.3004 28.3004 28.3004 81.3004 28.3004 31.3004 28.3004 52.3004 28.3004 28.3004 28.3004 28.3004 28.3004 28.3004 28.3004 28.3004 28.3004 28.3004 28.3004 256.3 28.3004 363.3 175.3 28.3004 212.3 28.3004 28.3004 28.3004 28.3004 28.3004 28.3004 28.3004 28.3004 28.3004 28.3004 28.3004 28.3004 28.3004 28.3004 28.3004 28.3004 28.3004 28.3004 28.3004 28.3004 28.3004 28.3004 31.3004 28.3004 28.3004 28.3004 28.3004 84.3004 1036.3 81.3004 28.3004 38.3004 28.3004 28.3004 28.3004 28.3004 28.3004 28.3004 28.3004 28.3004 29.3004 28.3004 36.3004 28.3004 28.3004 28.3004 28.3004 28.3004 28.3004 28.3004 28.3004 28.3004 28.3004 28.3004 28.3004 28.3004 28.3004 28.3004 28.3004 28.3004 28.3004 28.3004 30.3004 58.3004 28.3004 33.3004 28.3004 28.3004 28.3004 28.3004 28.3004 28.3004 28.3004 28.3004 28.3004 28.3004 28.3004 28.3004 28.3004 28.3004 181.3 28.3004 28.3004 28.3004 28.3004 28.3004 28.3004 28.3004 28.3004 28.3004 28.3004 28.3004 28.3004 28.3004 28.3004 28.3004 28.3004 28.3004 28.3004 28.3004 28.3004 28.3004 28.3004 32.3004 55.3004 31.3004 28.3004 28.3004 28.3004 28.3004 28.3004 28.3004 28.3004 28.3004 28.3004 28.3004 28.3004 505.3 28.3004 28.3004 50.3004 37.3004 28.3004 28.3004 28.3004 28.3004 150.3 28.3004 28.3004 96.3004 41.3004 28.3004 28.3004 28.3004 28.3004 28.3004 28.3004 28.3004 28.3004 28.3004 28.3004 28.3004 28.3004 28.3004 34.3004 77.3004 28.3004 28.3004 28.3004 28.3004 28.3004 28.3004 28.3004 1150.3 793.15 68.3004 29.3004 28.3004 28.3004 28.3004 28.3004 28.3004 28.3004 28.3004 28.3004 28.3004 28.3004 75.3004 28.3004 28.3004 28.3004 28.3004 28.3004 28.3004 28.3004 28.3004 28.3004 826.3 28.3004 28.3004 28.3004 51.3004 28.3004 28.3004 30.3004 79.3004 343.3 28.3004 28.3004 28.3004 28.3004 28.3004 28.3004 28.3004 28.3004 28.3004 28.3004 71.3004 121.3 28.3004 28.3004 32.3004 30.3004 28.3004 28.3004 28.3004 190.3 28.3004 28.3004 31.3004 28.3004 28.3004 28.3004 28.3004 28.3004 28.3004 28.3004 28.3004 28.3004 28.3004 28.3004 28.3004 28.3004 28.3004 28.3004 266.3 28.3004 28.3004 28.3004 29.3004 28.3004 28.3004 28.3004 28.3004 28.3004 28.3004 28.3004 28.3004 134.3 28.3004 28.3004 28.3004 42.3004 28.3004 28.3004 28.3004 28.3004 28.3004 66.3004 79.3004 28.3004 28.3004 85.3004 28.3004 28.3004 28.3004 28.3004 28.3004 28.3004 28.3004 28.3004 28.3004 28.3004 28.3004 28.3004 28.3004 29.3004 28.3004 28.3004 28.3004 28.3004 28.3004 28.3004 28.3004 40.3004 58.3004 28.3004 28.3004 28.3004 28.3004 28.3004 28.3004 28.3004 28.3004 28.3004 28.3004 34.3004 28.3004 28.3004 66.3004 28.3004 28.3004 28.3004 28.3004 28.3004 28.3004 28.3004 28.3004 29.3004 28.3004 28.3004 28.3004 28.3004 28.3004 28.3004 28.3004 28.3004 964.3 28.3004 116.3 28.3004 28.3004 28.3004 28.3004 58.3004 28.3004 28.3004 28.3004 61.3004 28.3004 28.3004 28.3004 28.3004 28.3004 28.3004 28.3004 28.3004 28.3004 28.3004 28.3004 28.3004 28.3004 28.3004 28.3004 28.3004 28.3004 28.3004 28.3004 28.3004 28.3004 28.3004 28.3004 28.3004 28.3004 28.3004 28.3004 28.3004 77.3004 28.3004 60.3004 82.3004 28.3004 28.3004 28.3004 28.3004 28.3004 78.3004 28.3004 28.3004 42.3004 28.3004 28.3004 28.3004 28.3004 28.3004 28.3004 35.3004 28.3004 28.3004 28.3004 272.3 62.3004 28.3004 28.3004 28.3004 28.3004 28.3004 28.3004 28.3004 354.3 28.3004 28.3004 28.3004 28.3004 28.3004 28.3004 28.3004 28.3004 160.3 28.3004 28.3004 28.3004 28.3004 28.3004 28.3004 28.3004 30.3004 30.3004 28.3004 28.3004 28.3004 28.3004 28.3004 28.3004 28.3004 28.3004 93.3004 28.3004 28.3004 28.3004 28.3004 28.3004 28.3004 28.3004 421.3 28.3004 28.3004 28.3004 28.3004 28.3004 28.3004 28.3004 28.3004 28.3004 28.3004 28.3004 28.3004 28.3004 28.3004 28.3004 190.3 28.3004 28.3004 28.3004 28.3004 28.3004 28.3004 28.3004 28.3004 28.3004 28.3004 28.3004 210.3 28.3004 28.3004 28.3004 28.3004 28.3004 28.3004 28.3004 28.3004 28.3004 28.3004 28.3004 28.3004 28.3004 28.3004 28.3004 28.3004 28.3004 28.3004 587.3 28.3004 28.3004 28.3004 28.3004 28.3004 28.3004 28.3004 28.3004 28.3004 40.3004 84.3004 66.3004 28.3004 28.3004 28.3004 28.3004 28.3004 28.3004 28.3004 136.3 28.3004 28.3004 28.3004 28.3004 28.3004 28.3004 28.3004 28.3004 28.3004 28.3004 28.3004 28.3004 28.3004 28.3004 28.3004 28.3004 28.3004 28.3004 28.3004 28.3004 28.3004 28.3004 28.3004 218.3 28.3004 28.3004 28.3004 28.3004 28.3004 42.3004 42.3004 28.3004 28.3004 28.3004 35.3004 28.3004 28.3004 28.3004 496.3 28.3004 35.3004 28.3004 28.3004 28.3004 28.3004 28.3004 28.3004 28.3004 28.3004 28.3004 28.3004 28.3004 28.3004 28.3004 184.3 28.3004 28.3004 28.3004 28.3004 28.3004 28.3004 28.3004 28.3004 28.3004 28.3004 28.3004 28.3004 28.3004 28.3004 28.3004 88.3004 30.3004 28.3004 28.3004 28.3004 392.3 28.3004 113.3 32.3004 451.3 62.3004 28.3004 28.3004 28.3004 28.3004 28.3004 28.3004 28.3004 28.3004 28.3004 28.3004 28.3004 28.3004 28.3004 28.3004 28.3004 28.3004 28.3004 28.3004 28.3004 28.3004 28.3004 28.3004 28.3004 28.3004 28.3004 28.3004 38.3004 28.3004 28.3004 28.3004 943.3 677.3 28.3004 28.3004 68.3004 28.3004 32.3004 82.3004 28.3004 28.3004 28.3004 28.3004 28.3004 28.3004 28.3004 28.3004 28.3004 28.3004 28.3004 28.3004 28.3004 28.3004 28.3004 187.3 28.3004 28.3004 28.3004 28.3004 28.3004 28.3004 28.3004 28.3004 28.3004 28.3004 28.3004 28.3004 28.3004 28.3004 28.3004 28.3004 28.3004 497.3 28.3004 28.3004 44.3004 28.3004 28.3004 28.3004 50.3004 28.3004 28.3004 127.3 28.3004 28.3004 28.3004 28.3004 28.3004 28.3004 28.3004 28.3004 28.3004 28.3004 28.3004 28.3004 28.3004 28.3004 28.3004 28.3004 28.3004 28.3004 28.3004 28.3004 28.3004 28.3004 28.3004 28.3004 34.3004 28.3004 28.3004 48.3004 28.3004 177.3 314.3 28.3004 28.3004 128.3 469.3 244.3 98.3004 192.3 59.3004 28.3004 28.3004 28.3004 28.3004 28.3004 28.3004 28.3004 28.3004 28.3004 28.3004 28.3004 28.3004 28.3004 28.3004 28.3004 28.3004 28.3004 28.3004 28.3004 28.3004 28.3004 228.3 28.3004 28.3004 28.3004 28.3004 28.3004 28.3004 28.3004 28.3004 28.3004 39.3004 28.3004 190.3 73.3004 119.3 28.3004 28.3004 28.3004 38.3004 28.3004 28.3004 28.3004 28.3004 28.3004 28.3004 28.3004 28.3004 28.3004 28.3004 28.3004 54.3004 28.3004 28.3004 28.3004 28.3004 28.3004 28.3004 28.3004 28.3004 28.3004 28.3004 28.3004 28.3004 28.3004 28.3004 28.3004 28.3004 28.3004 28.3004 28.3004 430.3 30.3004 28.3004 28.3004 28.3004 30.3004 28.3004 28.3004 28.3004 28.3004 50.3004 28.3004 28.3004 28.3004 28.3004 28.3004 28.3004 28.3004 28.3004 28.3004 28.3004 28.3004 28.3004 28.3004 28.3004 28.3004 84.3004 79.3004 28.3004 28.3004 28.3004 60.3004 28.3004 28.3004 28.3004 28.3004 28.3004 28.3004 28.3004 28.3004 37.3004 28.3004 112.3 28.3004 28.3004 28.3004 28.3004 28.3004 28.3004 28.3004 28.3004 28.3004 28.3004 28.3004 28.3004 28.3004 42.3004 28.3004 28.3004 28.3004 31.3004 28.3004 28.3004 28.3004 438.3 28.3004 28.3004 28.3004 28.3004 28.3004 32.3004 37.3004 28.3004 28.3004 28.3004 28.3004 214.3 28.3004 28.3004 28.3004 33.3004 28.3004 37.3004 28.3004 28.3004 28.3004 41.3004 36.3004 28.3004 41.3004 28.3004 92.3004 28.3004 28.3004 28.3004 28.3004 28.3004 28.3004 33.3004 28.3004 76.3004 28.3004 136.3 28.3004 28.3004 28.3004 28.3004 28.3004 28.3004 28.3004 28.3004 28.3004 28.3004 28.3004 28.3004 28.3004 28.3004 28.3004 28.3004 28.3004 28.3004 66.3004 28.3004 1151.3 28.3004 28.3004 80.3004 28.3004 28.3004 28.3004 28.3004 232.3 247.3 28.3004 28.3004 28.3004 28.3004 28.3004 28.3004 28.3004 28.3004 28.3004 28.3004 28.3004 28.3004 28.3004 28.3004 28.3004 28.3004 28.3004 28.3004 28.3004 28.3004 28.3004 28.3004 28.3004 196.3 28.3004 28.3004 28.3004 28.3004 30.3004 28.3004 106.3 40.3004 28.3004 28.3004 28.3004 28.3004 28.3004 28.3004 28.3004 28.3004 28.3004 28.3004 28.3004 109.3 166.3 28.3004 28.3004 28.3004 28.3004 28.3004 28.3004 28.3004 28.3004 102.3 28.3004 28.3004 28.3004 28.3004 28.3004 28.3004 106.3 32.3004 28.3004 28.3004 28.3004 28.3004 28.3004 28.3004 116.3 28.3004 48.3004 336.3 74.3004 44.3004 30.3004 28.3004 28.3004 28.3004 39.3004 33.3004 30.3004 28.3004 28.3004 28.3004 28.3004 28.3004 28.3004 28.3004 28.3004 28.3004 28.3004 28.3004 228.3 28.3004 122.3 28.3004 28.3004 28.3004 28.3004 28.3004 28.3004 28.3004 28.3004 28.3004 28.3004 28.3004 28.3004 28.3004 28.3004 28.3004 28.3004 28.3004 44.3004 28.3004 76.3004 28.3004 28.3004 28.3004 30.3004 28.3004 28.3004 28.3004 28.3004 28.3004 28.3004 28.3004 28.3004 28.3004 28.3004 29.3004 28.3004 28.3004 28.3004 28.3004 28.3004 28.3004 28.3004 28.3004 28.3004 28.3004 28.3004 28.3004 28.3004 28.3004 28.3004 29.3004 28.3004 28.3004 28.3004 28.3004 28.3004 28.3004 28.3004 229.3 82.3004 28.3004 133.3 34.3004 28.3004 28.3004 28.3004 28.3004 28.3004 28.3004 28.3004 28.3004 28.3004 28.3004 28.3004 28.3004 28.3004 28.3004 28.3004 28.3004 28.3004 28.3004 28.3004 28.3004 28.3004 48.3004 28.3004 28.3004 28.3004 28.3004 28.3004 28.3004 28.3004 28.3004 28.3004 28.3004 28.3004 28.3004 28.3004 36.3004 37.3004 28.3004 28.3004 102.3 28.3004 28.3004 124.3 28.3004 28.3004 28.3004 28.3004 28.3004 28.3004 28.3004 28.3004 28.3004 28.3004 28.3004 28.3004 28.3004 32.3004 28.3004 28.3004 28.3004 28.3004 28.3004 28.3004 28.3004 28.3004 28.3004 28.3004 28.3004 28.3004 28.3004 28.3004 28.3004 28.3004 28.3004 28.3004 34.3004 85.3004 32.3004 28.3004 28.3004 28.3004 28.3004 28.3004 28.3004 28.3004 28.3004 28.3004 28.3004 28.3004 28.3004 28.3004 28.3004 28.3004 28.3004 28.3004 28.3004 28.3004 28.3004 28.3004 31.3004 28.3004 28.3004 44.3004 28.3004 28.3004 28.3004 28.3004 28.3004 28.3004 28.3004 28.3004 28.3004 28.3004 28.3004 721.3 44.3004 126.3 31.3004 28.3004 28.3004 28.3004 28.3004 28.3004 28.3004 28.3004 28.3004 28.3004 28.3004 28.3004 28.3004 28.3004 28.3004 28.3004 28.3004 28.3004 28.3004 28.3004 28.3004 28.3004 28.3004 28.3004 28.3004 28.3004 28.3004 28.3004 28.3004 28.3004 28.3004 28.3004 28.3004 28.3004 28.3004 28.3004 30.3004 28.3004 28.3004 28.3004 460.3 28.3004 28.3004 28.3004 28.3004 46.3004 28.3004 28.3004 58.3004 28.3004 28.3004 28.3004 28.3004 28.3004 28.3004 28.3004 34.3004 28.3004 28.3004 28.3004 28.3004 28.3004 28.3004 28.3004 28.3004 28.3004 28.3004 28.3004 28.3004 28.3004 28.3004 28.3004 28.3004 28.3004 28.3004 28.3004 28.3004 28.3004 28.3004 28.3004 28.3004 30.3004 34.3004 28.3004 48.3004 46.3004 68.3004 28.3004 28.3004 78.3004 28.3004 28.3004 28.3004 28.3004 28.3004 28.3004 28.3004 28.3004 28.3004 116.3 28.3004 28.3004 28.3004 28.3004 28.3004 28.3004 28.3004 28.3004 28.3004 28.3004 28.3004 28.3004 28.3004 28.3004 28.3004 28.3004 28.3004 28.3004 28.3004 28.3004 28.3004 28.3004 74.3004 1194.3 28.3004 28.3004 28.3004 29.3004 28.3004 38.3004 28.3004 28.3004 28.3004 28.3004 28.3004 28.3004 28.3004 28.3004 28.3004 28.3004 28.3004 28.3004 523.3 28.3004 28.3004 28.3004 28.3004 44.3004 28.3004 28.3004 28.3004 28.3004 28.3004 28.3004 28.3004 28.3004 28.3004 28.3004 28.3004 28.3004 28.3004 28.3004 28.3004 742.3 28.3004 28.3004 28.3004 148.3 28.3004 33.3004 28.3004 28.3004 28.3004 28.3004 28.3004 28.3004 28.3004 28.3004 28.3004 28.3004 28.3004 28.3004 28.3004 31.3004 28.3004 28.3004 28.3004 28.3004 28.3004 28.3004 28.3004 28.3004 28.3004 28.3004 28.3004 28.3004 28.3004 28.3004 28.3004 28.3004 28.3004 28.3004 28.3004 82.3004 28.3004 28.3004 28.3004 28.3004 28.3004 28.3004 39.3004 28.3004 28.3004 28.3004 28.3004 28.3004 28.3004 28.3004 28.3004 28.3004 28.3004 28.3004 28.3004 28.3004 28.3004 28.3004 28.3004 52.3004 28.3004 28.3004 28.3004 28.3004 28.3004 28.3004 28.3004 28.3004 28.3004 28.3004 28.3004 28.3004 28.3004 28.3004 28.3004 117.3 37.3004 28.3004 28.3004 28.3004 39.3004 28.3004 28.3004 28.3004 28.3004 28.3004 197.3 28.3004 28.3004 28.3004 28.3004 28.3004 28.3004 28.3004 28.3004 28.3004 28.3004 29.3004 28.3004 28.3004 28.3004 28.3004 28.3004 28.3004 28.3004 28.3004 28.3004 28.3004 28.3004 28.3004 28.3004 364.3 68.3004 110.3 28.3004 28.3004 28.3004 40.3004 28.3004 28.3004 64.3004 28.3004 28.3004 208.3 32.3004 28.3004 28.3004 28.3004 28.3004 28.3004 28.3004 28.3004 28.3004 28.3004 28.3004 28.3004 28.3004 28.3004 28.3004 392.3 28.3004 28.3004 28.3004 28.3004 28.3004 28.3004 28.3004 28.3004 28.3004 28.3004 28.3004 28.3004 28.3004 28.3004 29.3004 28.3004 28.3004 30.3004 28.3004 28.3004 28.3004 28.3004 28.3004 51.3004 28.3004 28.3004 28.3004 28.3004 28.3004 31.3004 28.3004 28.3004 28.3004 28.3004 28.3004 30.3004 28.3004 28.3004 81.3004 28.3004 44.3004 28.3004 28.3004 28.3004 29.3004 28.3004 28.3004 28.3004 28.3004 45.3004 28.3004 28.3004 29.3004 28.3004 28.3004 85.3004 28.3004 28.3004 156.3 28.3004 192.3 28.3004 28.3004 28.3004 28.3004 28.3004 28.3004 28.3004 28.3004 28.3004 28.3004 28.3004 28.3004 28.3004 28.3004 28.3004 142.3 28.3004 28.3004 28.3004 28.3004 28.3004 28.3004 28.3004 28.3004 28.3004 28.3004 28.3004 28.3004 28.3004 28.3004 28.3004 28.3004 42.3004 28.3004 28.3004 28.3004 28.3004 30.3004 92.3004 56.3004 617.3 28.3004 28.3004 28.3004 28.3004 28.3004 28.3004 28.3004 28.3004 28.3004 28.3004 28.3004 28.3004 28.3004 28.3004 28.3004 28.3004 28.3004 28.3004 28.3004 28.3004 28.3004 28.3004 28.3004 28.3004 28.3004 28.3004 28.3004 28.3004 28.3004 28.3004 28.3004 28.3004 28.3004 28.3004 28.3004 28.3004 28.3004 28.3004 566.3 316.3 53.3004 166.3 28.3004 33.3004 98.3004 28.3004 28.3004 28.3004 28.3004 28.3004 28.3004 28.3004 28.3004 28.3004 28.3004 28.3004 28.3004 28.3004 60.3004 46.3004 28.3004 28.3004 28.3004 61.3004 28.3004 28.3004 28.3004 28.3004 28.3004 28.3004 28.3004 28.3004 28.3004 28.3004 28.3004 28.3004 28.3004 28.3004 32.3004 28.3004 33.3004 28.3004 28.3004 34.3004 28.3004 28.3004 28.3004 28.3004 28.3004 28.3004 28.3004 28.3004 28.3004 28.3004 28.3004 28.3004 28.3004 28.3004 28.3004 28.3004 28.3004 28.3004 28.3004 28.3004 28.3004 28.3004 28.3004 28.3004 28.3004 28.3004 28.3004 28.3004 28.3004 28.3004 28.3004 28.3004 28.3004 28.3004 28.3004 124.3 31.3004 28.3004 28.3004 28.3004 94.3004 157.3 28.3004 28.3004 29.3004 28.3004 28.3004 28.3004 28.3004 28.3004 28.3004 28.3004 28.3004 28.3004 28.3004 28.3004 28.3004 28.3004 28.3004 72.3004 28.3004 28.3004 28.3004 28.3004 28.3004 28.3004 28.3004 28.3004 28.3004 28.3004 28.3004 28.3004 28.3004 28.3004 28.3004 28.3004 82.3004 28.3004 56.3004 28.3004 28.3004 28.3004 28.3004 28.3004 28.3004 28.3004 28.3004 28.3004 28.3004 28.3004 28.3004 28.3004 28.3004 28.3004 28.3004 28.3004 28.3004 28.3004 28.3004 28.3004 28.3004 28.3004 28.3004 28.3004 28.3004 28.3004 28.3004 28.3004 28.3004 28.3004 28.3004 28.3004 28.3004 28.3004 28.3004 28.3004 28.3004 28.3004 28.3004 28.3004 28.3004 28.3004 28.3004 28.3004 28.3004 28.3004 28.3004 28.3004 28.3004 28.3004 28.3004 28.3004 28.3004 28.3004 28.3004 28.3004 364.3 40.3004 28.3004 28.3004 28.3004 28.3004 28.3004 28.3004 28.3004 28.3004 28.3004 28.3004 28.3004 28.3004 28.3004 29.3004 28.3004 28.3004 28.3004 28.3004 28.3004 41.3004 28.3004 28.3004 28.3004 28.3004 28.3004 28.3004 28.3004 28.3004 104.3 28.3004 28.3004 28.3004 192.3 28.3004 28.3004 28.3004 44.3004 28.3004 28.3004 44.3004 34.3004 28.3004 28.3004 28.3004 28.3004 28.3004 28.3004 28.3004 28.3004 28.3004 28.3004 28.3004 28.3004 28.3004 28.3004 28.3004 28.3004 28.3004 28.3004 40.3004 39.3004 28.3004 
rewards of Offsets elements: 0 0 0 1044 184 1064 184 6 30 0 0 0 1015 1137 0 0 1201 1207 0 0 775 0 0 0 0 0 1572 0 0 0 0 26 0 0 0 0 0 0 0 0 0 0 0 0 0 0 429 0 0 16 0 0 0 628 1167 0 0 0 0 0 0 0 0 0 0 0 0 0 0 0 0 3 0 0 0 0 60 17 0 0 0 549 0 0 0 0 118 106 0 1 0 0 1401 0 0 339 0 0 0 0 0 0 0 0 244 0 0 0 0 0 0 3 26 0 0 0 0 0 0 0 0 0 0 0 0 0 0 231 0 0 0 0 0 0 434 0 0 0 0 0 0 0 96 0 0 0 0 0 0 0 0 0 79 189 364 0 0 55 0 710 0 0 0 0 0 0 0 56 34 0 2 163 0 0 0 0 0 0 0 0 0 0 0 0 0 0 0 0 0 0 53 0 3 0 24 0 0 0 0 0 0 0 0 0 0 0 228 0 335 147 0 184 0 0 0 0 0 0 0 0 0 0 0 0 0 0 0 0 0 0 0 0 0 0 3 0 0 0 0 56 1008 53 0 10 0 0 0 0 0 0 0 0 1 0 8 0 0 0 0 0 0 0 0 0 0 0 0 0 0 0 0 0 0 0 2 30 0 5 0 0 0 0 0 0 0 0 0 0 0 0 0 0 153 0 0 0 0 0 0 0 0 0 0 0 0 0 0 0 0 0 0 0 0 0 0 4 27 3 0 0 0 0 0 0 0 0 0 0 0 477 0 0 22 9 0 0 0 0 122 0 0 68 13 0 0 0 0 0 0 0 0 0 0 0 0 0 6 49 0 0 0 0 0 0 0 1122 779 40 1 0 0 0 0 0 0 0 0 0 0 47 0 0 0 0 0 0 0 0 0 798 0 0 0 23 0 0 2 51 315 0 0 0 0 0 0 0 0 0 0 43 93 0 0 4 2 0 0 0 162 0 0 3 0 0 0 0 0 0 0 0 0 0 0 0 0 0 0 238 0 0 0 1 0 0 0 0 0 0 0 0 106 0 0 0 14 0 0 0 0 0 38 51 0 0 57 0 0 0 0 0 0 0 0 0 0 0 0 0 1 0 0 0 0 0 0 0 12 30 0 0 0 0 0 0 0 0 0 0 6 0 0 38 0 0 0 0 0 0 0 0 1 0 0 0 0 0 0 0 0 936 0 88 0 0 0 0 30 0 0 0 33 0 0 0 0 0 0 0 0 0 0 0 0 0 0 0 0 0 0 0 0 0 0 0 0 0 0 0 0 49 0 32 54 0 0 0 0 0 50 0 0 14 0 0 0 0 0 0 7 0 0 0 244 34 0 0 0 0 0 0 0 326 0 0 0 0 0 0 0 0 132 0 0 0 0 0 0 0 2 2 0 0 0 0 0 0 0 0 65 0 0 0 0 0 0 0 393 0 0 0 0 0 0 0 0 0 0 0 0 0 0 0 162 0 0 0 0 0 0 0 0 0 0 0 182 0 0 0 0 0 0 0 0 0 0 0 0 0 0 0 0 0 0 559 0 0 0 0 0 0 0 0 0 12 56 38 0 0 0 0 0 0 0 108 0 0 0 0 0 0 0 0 0 0 0 0 0 0 0 0 0 0 0 0 0 0 0 190 0 0 0 0 0 14 14 0 0 0 7 0 0 0 468 0 7 0 0 0 0 0 0 0 0 0 0 0 0 0 156 0 0 0 0 0 0 0 0 0 0 0 0 0 0 0 60 2 0 0 0 364 0 85 4 423 34 0 0 0 0 0 0 0 0 0 0 0 0 0 0 0 0 0 0 0 0 0 0 0 0 0 0 10 0 0 0 915 649 0 0 40 0 4 54 0 0 0 0 0 0 0 0 0 0 0 0 0 0 0 159 0 0 0 0 0 0 0 0 0 0 0 0 0 0 0 0 0 469 0 0 16 0 0 0 22 0 0 99 0 0 0 0 0 0 0 0 0 0 0 0 0 0 0 0 0 0 0 0 0 0 0 0 6 0 0 20 0 149 286 0 0 100 441 216 70 164 31 0 0 0 0 0 0 0 0 0 0 0 0 0 0 0 0 0 0 0 0 0 200 0 0 0 0 0 0 0 0 0 11 0 162 45 91 0 0 0 10 0 0 0 0 0 0 0 0 0 0 0 26 0 0 0 0 0 0 0 0 0 0 0 0 0 0 0 0 0 0 0 402 2 0 0 0 2 0 0 0 0 22 0 0 0 0 0 0 0 0 0 0 0 0 0 0 0 56 51 0 0 0 32 0 0 0 0 0 0 0 0 9 0 84 0 0 0 0 0 0 0 0 0 0 0 0 0 14 0 0 0 3 0 0 0 410 0 0 0 0 0 4 9 0 0 0 0 186 0 0 0 5 0 9 0 0 0 13 8 0 13 0 64 0 0 0 0 0 0 5 0 48 0 108 0 0 0 0 0 0 0 0 0 0 0 0 0 0 0 0 0 0 38 0 1123 0 0 52 0 0 0 0 204 219 0 0 0 0 0 0 0 0 0 0 0 0 0 0 0 0 0 0 0 0 0 0 0 168 0 0 0 0 2 0 78 12 0 0 0 0 0 0 0 0 0 0 0 81 138 0 0 0 0 0 0 0 0 74 0 0 0 0 0 0 78 4 0 0 0 0 0 0 88 0 20 308 46 16 2 0 0 0 11 5 2 0 0 0 0 0 0 0 0 0 0 0 200 0 94 0 0 0 0 0 0 0 0 0 0 0 0 0 0 0 0 0 16 0 48 0 0 0 2 0 0 0 0 0 0 0 0 0 0 1 0 0 0 0 0 0 0 0 0 0 0 0 0 0 0 1 0 0 0 0 0 0 0 201 54 0 105 6 0 0 0 0 0 0 0 0 0 0 0 0 0 0 0 0 0 0 0 0 0 20 0 0 0 0 0 0 0 0 0 0 0 0 0 8 9 0 0 74 0 0 96 0 0 0 0 0 0 0 0 0 0 0 0 0 4 0 0 0 0 0 0 0 0 0 0 0 0 0 0 0 0 0 0 6 57 4 0 0 0 0 0 0 0 0 0 0 0 0 0 0 0 0 0 0 0 0 0 3 0 0 16 0 0 0 0 0 0 0 0 0 0 0 693 16 98 3 0 0 0 0 0 0 0 0 0 0 0 0 0 0 0 0 0 0 0 0 0 0 0 0 0 0 0 0 0 0 0 0 0 0 0 2 0 0 0 432 0 0 0 0 18 0 0 30 0 0 0 0 0 0 0 6 0 0 0 0 0 0 0 0 0 0 0 0 0 0 0 0 0 0 0 0 0 0 0 0 2 6 0 20 18 40 0 0 50 0 0 0 0 0 0 0 0 0 88 0 0 0 0 0 0 0 0 0 0 0 0 0 0 0 0 0 0 0 0 0 0 46 1166 0 0 0 1 0 10 0 0 0 0 0 0 0 0 0 0 0 0 495 0 0 0 0 16 0 0 0 0 0 0 0 0 0 0 0 0 0 0 0 714 0 0 0 120 0 5 0 0 0 0 0 0 0 0 0 0 0 0 0 3 0 0 0 0 0 0 0 0 0 0 0 0 0 0 0 0 0 0 0 54 0 0 0 0 0 0 11 0 0 0 0 0 0 0 0 0 0 0 0 0 0 0 0 24 0 0 0 0 0 0 0 0 0 0 0 0 0 0 0 89 9 0 0 0 11 0 0 0 0 0 169 0 0 0 0 0 0 0 0 0 0 1 0 0 0 0 0 0 0 0 0 0 0 0 0 336 40 82 0 0 0 12 0 0 36 0 0 180 4 0 0 0 0 0 0 0 0 0 0 0 0 0 0 364 0 0 0 0 0 0 0 0 0 0 0 0 0 0 1 0 0 2 0 0 0 0 0 23 0 0 0 0 0 3 0 0 0 0 0 2 0 0 53 0 16 0 0 0 1 0 0 0 0 17 0 0 1 0 0 57 0 0 128 0 164 0 0 0 0 0 0 0 0 0 0 0 0 0 0 0 114 0 0 0 0 0 0 0 0 0 0 0 0 0 0 0 0 14 0 0 0 0 2 64 28 589 0 0 0 0 0 0 0 0 0 0 0 0 0 0 0 0 0 0 0 0 0 0 0 0 0 0 0 0 0 0 0 0 0 0 0 0 0 0 538 288 25 138 0 5 70 0 0 0 0 0 0 0 0 0 0 0 0 0 32 18 0 0 0 33 0 0 0 0 0 0 0 0 0 0 0 0 0 0 4 0 5 0 0 6 0 0 0 0 0 0 0 0 0 0 0 0 0 0 0 0 0 0 0 0 0 0 0 0 0 0 0 0 0 0 0 0 0 0 0 96 3 0 0 0 66 129 0 0 1 0 0 0 0 0 0 0 0 0 0 0 0 0 0 44 0 0 0 0 0 0 0 0 0 0 0 0 0 0 0 0 54 0 28 0 0 0 0 0 0 0 0 0 0 0 0 0 0 0 0 0 0 0 0 0 0 0 0 0 0 0 0 0 0 0 0 0 0 0 0 0 0 0 0 0 0 0 0 0 0 0 0 0 0 0 0 0 0 0 0 0 336 12 0 0 0 0 0 0 0 0 0 0 0 0 0 1 0 0 0 0 0 13 0 0 0 0 0 0 0 0 76 0 0 0 164 0 0 0 16 0 0 16 6 0 0 0 0 0 0 0 0 0 0 0 0 0 0 0 0 0 0 12 11 0 Printing Sanity3
offset_index value2069
offset list size2069
reward size2069
potential size2069
-----------------------------------------------------------------------------------------------------------------------------------------------------------------------------------------------------

DRAM Statistics
 CHANNEL 0
 RQ ROW_BUFFER_HIT:         23  ROW_BUFFER_MISS:        783
 DBUS_CONGESTED:          0
 WQ ROW_BUFFER_HIT:          0  ROW_BUFFER_MISS:          0  FULL:          0

 AVG_CONGESTED_CYCLE: -
 All warmup complete: 2
Channel 0 Bank busy for read cycles: 0
Channel 0 Bank busy for write cycles: 0
Channel 0
Rank 0
0banks busy for read cycles: 662945995
0banks busy for write cycles: 0
1banks busy for read cycles: 101669
1banks busy for write cycles: 0
2banks busy for read cycles: 7735
2banks busy for write cycles: 0
3banks busy for read cycles: 487
3banks busy for write cycles: 0
4banks busy for read cycles: 0
4banks busy for write cycles: 0
5banks busy for read cycles: 0
5banks busy for write cycles: 0
6banks busy for read cycles: 0
6banks busy for write cycles: 0
7banks busy for read cycles: 0
7banks busy for write cycles: 0
8banks busy for read cycles: 0
8banks busy for write cycles: 0

CPU 0 Branch Prediction Accuracy: 99.9104% MPKI: 0.15902 Average ROB Occupancy at Mispredict: 31.3747
Branch types
NOT_BRANCH: 164498173 82.2491%
BRANCH_DIRECT_JUMP: 1948775 0.974387%
BRANCH_INDIRECT: 12729317 6.36466%
BRANCH_CONDITIONAL: 10930530 5.46526%
BRANCH_DIRECT_CALL: 4157362 2.07868%
BRANCH_INDIRECT_CALL: 789217 0.394608%
BRANCH_RETURN: 4946561 2.47328%
BRANCH_OTHER: 0 0%

DRAM PAGES: 1048576
Allocated PAGES: 1236
