
*** ChampSim Multicore Out-of-Order Simulator ***

Warmup Instructions: 50000000
Simulation Instructions: 200000000
Number of CPUs: 1
LLC sets: 2048
LLC ways: 16
Off-chip DRAM Size: 4096 MB Channels: 1 Width: 64-bit Data Rate: 6400 MT/s
CPU 0 runs traces/spec2k17/srv_24.champsimtrace.xz
.xz
BTB has LRU replacement policy
ITLB has LRU replacement policy
DTLB has LRU replacement policy
STLB has LRU replacement policy
L1I has LRU replacement policy
L1D has LRU replacement policy
Initialize SRRIP state for L2C
Initialize DRRIP state for LLC
Heartbeat CPU 0 instructions: 10000000 cycles: 2832126 heartbeat IPC: 3.53092 cumulative IPC: 3.53092 (Simulation time: 0 hr 0 min 34 sec) 
Heartbeat CPU 0 instructions: 20000000 cycles: 5660013 heartbeat IPC: 3.53621 cumulative IPC: 3.53356 (Simulation time: 0 hr 1 min 9 sec) 
Heartbeat CPU 0 instructions: 30000001 cycles: 8487396 heartbeat IPC: 3.53684 cumulative IPC: 3.53465 (Simulation time: 0 hr 1 min 45 sec) 
*** Reached end of trace for Core: 0 Repeating trace: traces/spec2k17/srv_24.champsimtrace.xz
Heartbeat CPU 0 instructions: 40000002 cycles: 11313229 heartbeat IPC: 3.53878 cumulative IPC: 3.53568 (Simulation time: 0 hr 2 min 21 sec) 
Heartbeat CPU 0 instructions: 50000002 cycles: 14139489 heartbeat IPC: 3.53824 cumulative IPC: 3.5362 (Simulation time: 0 hr 2 min 55 sec) 

Warmup complete CPU 0 instructions: 50000002 cycles: 14139489 (Simulation time: 0 hr 2 min 55 sec) 

Offsets elements: 
Potential of Offsets elements: 
rewards of Offsets elements: 
Printing Sanity1
offset list size2036
Offsets elements: 
Potential of Offsets elements: 
rewards of Offsets elements: 0 0 172 483 0 0 0 0 0 4 0 0 0 0 2034 135 0 0 0 0 0 0 0 0 0 3799 900 814 805 0 264 142 0 0 0 0 0 0 0 0 84 0 0 0 0 0 0 120 72 615 183 0 0 0 0 402 100 0 0 0 382 137 0 0 0 0 0 0 0 0 0 205 0 0 0 0 0 0 56 0 0 0 0 0 1 0 0 26 0 92 0 28 0 0 0 0 0 0 0 331 358 0 0 0 0 0 0 459 0 0 1 276 236 1179 0 1131 8 0 0 0 0 0 0 0 0 0 0 0 0 0 0 0 2 0 0 0 0 0 0 0 0 0 456 66 0 0 0 0 0 0 0 120 51 0 0 0 0 0 0 0 0 337 0 81 38 0 0 0 0 0 0 0 45 0 0 0 0 7 0 0 886 0 0 0 0 0 0 0 0 0 0 0 270 2 0 0 0 0 0 0 0 0 0 0 0 0 0 0 0 0 0 0 0 0 92 254 433 0 0 0 0 35 0 0 0 42 0 0 0 0 0 0 0 870 34 336 114 38 0 0 0 60 615 0 38 0 0 0 0 0 0 0 0 0 0 0 0 0 0 0 0 0 0 0 155 0 0 0 0 0 8 0 0 0 77 0 0 0 0 129 441 99 43 0 0 0 0 0 0 0 0 0 0 0 0 0 0 0 0 0 0 0 0 0 0 25 0 0 0 0 0 0 0 282 108 812 8 72 540 0 0 0 0 0 0 0 0 0 0 0 0 0 0 0 0 360 0 0 0 0 0 0 0 0 0 0 0 0 0 0 0 0 0 0 55 540 0 14 0 0 0 0 0 2 0 0 0 0 0 0 0 0 0 0 0 0 0 0 0 0 0 0 0 0 0 0 0 0 0 0 0 0 0 0 0 175 45 0 47 140 396 264 175 110 1 0 0 0 0 0 0 0 0 0 0 0 0 0 0 0 0 0 0 0 0 0 328 0 0 0 0 0 0 0 51 61 716 0 22 0 0 0 0 0 0 0 0 0 0 0 0 0 0 0 0 0 0 0 0 0 0 0 0 0 0 0 0 0 0 0 0 0 0 0 0 0 320 210 96 0 0 0 0 0 0 0 0 0 0 0 0 0 0 0 0 6 0 0 0 0 0 541 0 0 0 0 0 0 635 0 0 0 0 0 0 5 0 84 51 0 68 38 54 0 0 0 0 0 0 0 0 0 0 0 0 0 10 0 0 0 0 0 0 0 12 0 0 0 0 0 0 0 37 0 0 0 0 0 26 0 419 0 0 0 0 0 32 13 0 0 0 0 0 0 0 0 0 0 0 0 0 7 5 0 0 0 0 0 0 0 0 0 0 0 0 0 1 0 30 3 0 0 0 0 0 58 0 0 0 0 0 0 0 0 0 0 0 136 0 0 0 0 0 0 0 0 0 0 0 0 0 0 0 0 0 0 0 0 0 13 0 0 0 0 4 0 0 124 84 0 384 0 0 0 0 0 0 0 0 0 0 0 0 0 0 41 0 0 0 0 0 0 0 0 0 0 0 0 0 0 76 0 6 0 0 0 0 6 1 1 9 0 61 0 0 0 0 0 0 0 0 0 0 0 0 0 0 1 0 0 0 0 0 0 0 0 0 43 0 94 16 0 1 0 0 0 4 0 0 0 0 0 0 0 0 0 0 0 0 0 0 0 0 0 0 0 1 0 0 0 0 0 0 0 0 0 0 0 0 21 0 52 0 212 58 0 78 0 13 0 0 0 0 0 1 0 0 0 0 0 0 98 0 0 0 0 0 0 0 0 0 0 0 0 400 0 0 0 0 0 0 43 37 0 0 0 0 0 0 0 0 0 0 0 0 0 0 0 0 0 0 176 0 0 0 0 0 0 0 0 0 0 0 0 0 0 0 0 0 0 0 0 346 0 0 0 0 0 90 0 223 0 0 0 0 0 0 0 0 0 0 0 0 0 0 0 0 0 0 0 0 0 0 0 0 0 0 0 0 24 0 0 2 0 0 0 0 0 0 0 0 8 0 0 24 0 0 0 0 0 0 0 0 0 0 0 0 0 0 0 0 0 0 0 0 0 0 0 0 0 0 0 0 27 0 0 0 0 0 98 0 0 0 0 0 0 0 0 0 0 0 0 0 0 0 0 0 0 0 0 0 0 0 0 0 0 0 0 0 0 0 0 186 0 6 0 0 0 0 4 0 50 0 0 0 0 0 0 0 0 0 0 0 0 0 0 0 4 0 0 0 0 0 0 0 0 0 0 0 0 0 0 0 0 70 0 0 160 3 0 0 0 0 0 0 0 0 0 0 25 0 0 0 0 0 0 0 0 0 0 0 0 0 0 0 0 0 0 0 0 0 0 0 18 0 37 1792 0 0 0 0 4 10 0 0 0 0 0 0 0 0 0 0 0 0 0 0 0 0 0 0 0 0 0 0 0 0 0 0 0 0 0 0 0 0 0 0 0 0 0 215 38 3 0 0 0 0 0 0 0 0 0 0 0 0 0 3 0 0 0 0 0 0 0 0 0 0 0 0 0 2 0 0 0 0 0 44 0 0 0 492 0 0 0 0 0 0 0 0 0 0 0 0 0 0 0 48 0 0 0 0 0 0 0 0 0 0 0 0 0 0 0 0 44 0 0 0 52 0 88 16 4 0 4 0 0 0 0 0 0 0 0 0 0 0 0 0 3 0 0 0 0 0 0 0 0 0 0 0 0 0 7 0 0 0 0 0 3 3 0 35 0 0 125 240 0 0 0 0 0 0 0 0 0 0 0 0 0 0 6 451 102 49 24 0 0 0 0 0 0 0 0 0 0 0 0 0 1 8 0 0 0 0 0 0 0 0 0 0 0 0 0 0 0 0 0 0 0 6 8 28 0 0 0 0 0 0 0 0 0 0 0 0 0 0 0 51 300 52 0 24 0 84 0 15 0 0 0 0 92 0 0 0 51 7 0 0 0 0 0 0 0 0 0 0 0 0 0 0 0 0 0 0 0 0 0 45 8 1 104 0 10 0 1 0 0 0 0 0 0 0 0 0 0 0 0 0 0 0 26 0 0 0 0 0 0 0 0 0 0 0 0 0 0 0 0 0 0 0 159 8 25 0 0 0 0 18 0 0 0 0 0 0 0 0 0 0 0 0 0 165 0 0 0 0 0 0 0 0 0 0 3 0 0 0 0 0 0 0 0 12 0 44 0 0 0 0 0 0 0 0 0 0 0 0 0 0 0 0 0 0 0 0 0 0 0 0 0 0 0 0 0 0 0 0 0 0 0 0 0 0 37 0 0 0 0 0 0 0 0 0 0 0 0 0 0 7 0 0 0 0 1 4 0 192 0 0 0 0 0 0 0 0 0 0 0 0 0 0 0 0 0 5 0 0 0 0 0 0 0 0 0 0 0 0 335 0 0 0 0 5 0 0 0 0 0 0 0 0 0 227 0 0 4 0 0 0 0 0 0 0 1 0 0 0 0 0 0 0 0 0 0 0 0 0 0 0 0 0 0 0 0 0 0 0 0 0 0 0 0 0 0 0 0 0 0 0 0 0 0 0 25 101 0 0 0 0 0 0 0 0 0 0 0 0 0 0 0 0 0 0 0 0 0 0 0 0 0 0 0 0 0 0 30 0 0 0 0 0 0 0 0 23 0 0 0 0 0 0 0 0 0 0 0 0 0 0 0 0 0 0 0 0 6 0 0 0 0 0 0 0 0 0 0 0 0 12 0 0 0 0 156 0 0 36 0 0 0 0 16 0 0 0 0 0 0 0 0 0 0 0 2 0 0 0 0 0 0 0 0 0 5 0 0 0 0 0 0 0 0 0 0 0 0 0 0 138 0 0 0 0 0 0 0 0 0 0 0 0 0 0 0 0 0 0 0 130 39 1 0 0 0 0 0 0 0 26 0 0 0 0 0 0 0 17 8 10 0 0 0 0 0 0 0 0 0 0 0 0 0 0 0 0 0 0 0 0 169 0 0 0 0 0 0 0 0 0 0 0 0 0 0 0 0 0 0 0 8 0 0 0 0 0 0 0 123 0 0 0 0 0 0 0 0 0 0 0 72 0 0 0 0 0 0 0 0 0 0 0 0 0 0 0 0 0 0 0 10 0 0 0 0 0 0 0 0 0 0 0 0 0 0 0 0 0 0 0 0 0 0 0 0 0 0 0 0 0 0 0 0 0 0 0 0 0 0 0 0 27 0 0 34 0 0 0 0 0 0 0 0 0 0 0 0 0 0 12 0 24 0 0 0 0 0 0 0 0 0 0 0 0 0 0 0 0 0 0 0 0 0 0 0 0 0 0 0 0 0 0 0 0 0 0 0 0 0 0 0 0 74 0 0 0 0 0 0 0 0 0 0 0 0 0 0 0 6 36 0 0 10 8 0 9 0 0 0 0 0 0 0 0 0 0 0 0 0 0 0 0 0 0 0 0 0 0 0 0 0 0 0 0 0 0 0 140 0 0 0 0 0 9 0 0 0 0 0 0 0 0 0 0 0 0 0 0 0 0 0 0 0 0 0 0 0 0 0 0 10 0 0 0 0 0 0 1 0 0 0 0 41 2 4 0 4 0 0 0 0 0 0 0 0 0 0 0 0 
Printing Sanity2
Heartbeat CPU 0 instructions: 60000000 cycles: 47574907 heartbeat IPC: 0.299084 cumulative IPC: 0.299084 (Simulation time: 0 hr 4 min 4 sec) 
*** Reached end of trace for Core: 0 Repeating trace: traces/spec2k17/srv_24.champsimtrace.xz
Heartbeat CPU 0 instructions: 70000000 cycles: 80936569 heartbeat IPC: 0.299745 cumulative IPC: 0.299414 (Simulation time: 0 hr 5 min 11 sec) 
Heartbeat CPU 0 instructions: 80000002 cycles: 114232244 heartbeat IPC: 0.300339 cumulative IPC: 0.299722 (Simulation time: 0 hr 6 min 16 sec) 
Heartbeat CPU 0 instructions: 90000000 cycles: 147567014 heartbeat IPC: 0.299987 cumulative IPC: 0.299788 (Simulation time: 0 hr 7 min 23 sec) 
*** Reached end of trace for Core: 0 Repeating trace: traces/spec2k17/srv_24.champsimtrace.xz
Heartbeat CPU 0 instructions: 100000001 cycles: 180901181 heartbeat IPC: 0.299993 cumulative IPC: 0.299829 (Simulation time: 0 hr 8 min 28 sec) 
Heartbeat CPU 0 instructions: 110000000 cycles: 214195921 heartbeat IPC: 0.300348 cumulative IPC: 0.299915 (Simulation time: 0 hr 9 min 36 sec) 
Heartbeat CPU 0 instructions: 120000001 cycles: 247516556 heartbeat IPC: 0.300114 cumulative IPC: 0.299944 (Simulation time: 0 hr 10 min 43 sec) 
*** Reached end of trace for Core: 0 Repeating trace: traces/spec2k17/srv_24.champsimtrace.xz
Heartbeat CPU 0 instructions: 130000003 cycles: 280834129 heartbeat IPC: 0.300142 cumulative IPC: 0.299969 (Simulation time: 0 hr 11 min 51 sec) 
Heartbeat CPU 0 instructions: 140000003 cycles: 314107033 heartbeat IPC: 0.300545 cumulative IPC: 0.300032 (Simulation time: 0 hr 12 min 55 sec) 
Heartbeat CPU 0 instructions: 150000003 cycles: 347400343 heartbeat IPC: 0.300361 cumulative IPC: 0.300065 (Simulation time: 0 hr 14 min 2 sec) 
*** Reached end of trace for Core: 0 Repeating trace: traces/spec2k17/srv_24.champsimtrace.xz
Heartbeat CPU 0 instructions: 160000003 cycles: 380681608 heartbeat IPC: 0.300469 cumulative IPC: 0.300102 (Simulation time: 0 hr 15 min 7 sec) 
Heartbeat CPU 0 instructions: 170000000 cycles: 413965801 heartbeat IPC: 0.300443 cumulative IPC: 0.30013 (Simulation time: 0 hr 16 min 11 sec) 
Heartbeat CPU 0 instructions: 180000001 cycles: 447249024 heartbeat IPC: 0.300452 cumulative IPC: 0.300155 (Simulation time: 0 hr 17 min 16 sec) 
*** Reached end of trace for Core: 0 Repeating trace: traces/spec2k17/srv_24.champsimtrace.xz
Heartbeat CPU 0 instructions: 190000002 cycles: 480539535 heartbeat IPC: 0.300386 cumulative IPC: 0.300171 (Simulation time: 0 hr 18 min 22 sec) 
Heartbeat CPU 0 instructions: 200000001 cycles: 513834691 heartbeat IPC: 0.300344 cumulative IPC: 0.300183 (Simulation time: 0 hr 19 min 28 sec) 
Heartbeat CPU 0 instructions: 210000001 cycles: 547097413 heartbeat IPC: 0.300637 cumulative IPC: 0.300211 (Simulation time: 0 hr 20 min 30 sec) 
*** Reached end of trace for Core: 0 Repeating trace: traces/spec2k17/srv_24.champsimtrace.xz
Heartbeat CPU 0 instructions: 220000000 cycles: 580374078 heartbeat IPC: 0.300511 cumulative IPC: 0.300229 (Simulation time: 0 hr 21 min 34 sec) 
Heartbeat CPU 0 instructions: 230000001 cycles: 613673235 heartbeat IPC: 0.300308 cumulative IPC: 0.300233 (Simulation time: 0 hr 22 min 43 sec) 
Heartbeat CPU 0 instructions: 240000003 cycles: 646937660 heartbeat IPC: 0.300622 cumulative IPC: 0.300254 (Simulation time: 0 hr 23 min 52 sec) 
Heartbeat CPU 0 instructions: 250000000 cycles: 680217683 heartbeat IPC: 0.30048 cumulative IPC: 0.300265 (Simulation time: 0 hr 24 min 58 sec) 
Finished CPU 0 instructions: 200000000 cycles: 666078195 cumulative IPC: 0.300265 (Simulation time: 0 hr 24 min 58 sec) 

ChampSim completed all CPUs

Region of Interest Statistics

CPU 0 cumulative IPC: 0.300265 instructions: 200000000 cycles: 666078195
ITLB TOTAL     ACCESS:   35349239  HIT:   32918466  MISS:    2430773  HIT %:    93.1235  MISS %:    6.87645   MPKI: 12.1539
ITLB LOAD TRANSLATION ACCESS:   35349239  HIT:   32918466  MISS:    2430773  HIT %:    93.1235  MISS %:    6.87645   MPKI: 12.1539
ITLB PREFETCH  REQUESTED:          0  ISSUED:          0  USEFUL:          0  USELESS:          0
ITLB USEFUL LOAD PREFETCHES:          0 PREFETCH ISSUED TO LOWER LEVEL:          0  ACCURACY: -nan
ITLB TIMELY PREFETCHES:          0 LATE PREFETCHES: 0 DROPPED PREFETCHES: 0
ITLB PREFETCHES SAME FILL-ORIGIN LEVEL: 0 DIFFERENT FILL-ORIGIN LEVEL: 0
ITLB AVERAGE MISS LATENCY: 9.00339 cycles
ITLB RQ	ACCESS:   41923797	FORWARD:          0	MERGED:    6009360	TO_CACHE:   35914437

DTLB TOTAL     ACCESS:   47420194  HIT:   45429615  MISS:    1990579  HIT %:    95.8023  MISS %:    4.19775   MPKI: 9.95289
DTLB LOAD TRANSLATION ACCESS:   47420194  HIT:   45429615  MISS:    1990579  HIT %:    95.8023  MISS %:    4.19775   MPKI: 9.95289
DTLB PREFETCH  REQUESTED:          0  ISSUED:          0  USEFUL:          0  USELESS:          0
DTLB USEFUL LOAD PREFETCHES:          0 PREFETCH ISSUED TO LOWER LEVEL:          0  ACCURACY: -nan
DTLB TIMELY PREFETCHES:          0 LATE PREFETCHES: 0 DROPPED PREFETCHES: 0
DTLB PREFETCHES SAME FILL-ORIGIN LEVEL: 0 DIFFERENT FILL-ORIGIN LEVEL: 0
DTLB AVERAGE MISS LATENCY: 9.02876 cycles
DTLB RQ	ACCESS:   62662644	FORWARD:          0	MERGED:   15191134	TO_CACHE:   47471510

STLB TOTAL     ACCESS:    4642422  HIT:    4641217  MISS:       1205  HIT %:     99.974  MISS %:  0.0259563   MPKI: 0.006025
STLB LOAD TRANSLATION ACCESS:    4421351  HIT:    4420146  MISS:       1205  HIT %:    99.9727  MISS %:  0.0272541   MPKI: 0.006025
STLB TRANSLATION FROM L1D PREFETCHER ACCESS:     221071  HIT:     221071  MISS:          0  HIT %:        100  MISS %:          0   MPKI: 0
STLB PREFETCH  REQUESTED:          0  ISSUED:          0  USEFUL:          0  USELESS:          0
STLB USEFUL LOAD PREFETCHES:          0 PREFETCH ISSUED TO LOWER LEVEL:          0  ACCURACY: -nan
STLB TIMELY PREFETCHES:          0 LATE PREFETCHES: 0 DROPPED PREFETCHES: 0
STLB PREFETCHES SAME FILL-ORIGIN LEVEL: 0 DIFFERENT FILL-ORIGIN LEVEL: 0
STLB AVERAGE MISS LATENCY: 28.8971 cycles
STLB RQ	ACCESS:    4659126	FORWARD:          0	MERGED:      16704	TO_CACHE:    4642422

STLB Hit, L1D data hit: 0
STLB Hit, L2C data hit: 0
STLB Hit, LLC data hit: 0
STLB Hit, LLC data miss: 0
STLB STLB hints to L2: 0
L1D TOTAL     ACCESS:   61051263  HIT:   56574816  MISS:    4476447  HIT %:    92.6677  MISS %:    7.33228   MPKI: 22.3822
L1D LOAD      ACCESS:   34660421  HIT:   31421754  MISS:    3238667  HIT %:     90.656  MISS %:    9.34399   MPKI: 16.1933
L1D RFO       ACCESS:   26156410  HIT:   24974025  MISS:    1182385  HIT %:    95.4796  MISS %:    4.52044   MPKI: 5.91193
L1D PREFETCH  ACCESS:     234432  HIT:     179037  MISS:      55395  HIT %:    76.3705  MISS %:    23.6295   MPKI: 0.276975
AGUS PREFETCH L1 MISS: 0
L1D PREFETCH  REQUESTED:     483565  ISSUED:     483565  USEFUL:       8905  USELESS:      46479
L1D USEFUL LOAD PREFETCHES:       8905 PREFETCH ISSUED TO LOWER LEVEL:      58322  ACCURACY: 15.2687
L1D TIMELY PREFETCHES:       8905 LATE PREFETCHES: 2927 DROPPED PREFETCHES: 0
L1D PREFETCHES SAME FILL-ORIGIN LEVEL: 58322 DIFFERENT FILL-ORIGIN LEVEL: 0
L1D AVERAGE MISS LATENCY: 233547 cycles
L1D RQ	ACCESS:   47221012	FORWARD:          0	MERGED:   12091258	TO_CACHE:   34784533
L1D WQ	ACCESS:   28029091	FORWARD:     345223	MERGED:     150980	TO_CACHE:   27878111
L1D PQ	ACCESS:     245790	FORWARD:          0	MERGED:       8013	TO_CACHE:     237775

L1D UNIQUE REGIONS ACCESSED: 0
L1D REGIONS CONFLICTS: 0
L1D Cross Page Prefetch Requests: 1
L1D Same Page Prefetch Requests: 245789
L1D ROI Sum of L1D PQ occupancy: 3054429
L1D PREFETCHES PUSHED FROM L2C: 0
L1I TOTAL     ACCESS:   40164003  HIT:   27934983  MISS:   12229020  HIT %:    69.5523  MISS %:    30.4477   MPKI: 61.1451
L1I LOAD      ACCESS:   40164003  HIT:   27934983  MISS:   12229020  HIT %:    69.5523  MISS %:    30.4477   MPKI: 61.1451
L1I PREFETCH  REQUESTED:          0  ISSUED:          0  USEFUL:          0  USELESS:          0
L1I USEFUL LOAD PREFETCHES:          0 PREFETCH ISSUED TO LOWER LEVEL:          0  ACCURACY: -nan
L1I TIMELY PREFETCHES:          0 LATE PREFETCHES: 0 DROPPED PREFETCHES: 0
L1I PREFETCHES SAME FILL-ORIGIN LEVEL: 0 DIFFERENT FILL-ORIGIN LEVEL: 0
L1I AVERAGE MISS LATENCY: 14.8892 cycles
L1I RQ	ACCESS:   58796038	FORWARD:          0	MERGED:   16872241	TO_CACHE:   41923797

BTB TOTAL     ACCESS:   30232374  HIT:   16633211  MISS:   13599163  HIT %:    55.0179  MISS %:    44.9821   MPKI: 67.9958
BTB BRANCH_DIRECT_JUMP	ACCESS:    1953106  HIT:    1075540  MISS:     877566
BTB BRANCH_INDIRECT	ACCESS:   12762841  HIT:    7577249  MISS:    5185592
BTB BRANCH_CONDITIONAL	ACCESS:    5680689  HIT:    4279292  MISS:    1401397
BTB BRANCH_DIRECT_CALL	ACCESS:    4143765  HIT:    1916358  MISS:    2227407
BTB BRANCH_INDIRECT_CALL	ACCESS:     774109  HIT:     369936  MISS:     404173
BTB BRANCH_RETURN	ACCESS:    4917864  HIT:    1414836  MISS:    3503028
BTB BRANCH_OTHER ACCESS:          0  HIT:          0  MISS:          0

L2C TOTAL     ACCESS:   19006495  HIT:   18437367  MISS:     569128  HIT %:    97.0056  MISS %:    2.99439   MPKI: 2.84564
L2C LOAD      ACCESS:   15464186  HIT:   14941611  MISS:     522575  HIT %:    96.6207  MISS %:    3.37926   MPKI: 2.61287
L2C DATA LOAD MPKI: 0.95155
L2C INSTRUCTION LOAD MPKI: 1.66132
L2C RFO       ACCESS:    1182386  HIT:    1153149  MISS:      29237  HIT %:    97.5273  MISS %:    2.47271   MPKI: 0.146185
L2C PREFETCH  ACCESS:      58322  HIT:      57186  MISS:       1136  HIT %:    98.0522  MISS %:    1.94781   MPKI: 0.00568
AGUS PREFETCH L1 MISS: 0
L2C DATA PREFETCH MPKI: 0.00568
L2C INSTRUCTION PREFETCH MPKI: 0
L2C WRITEBACK ACCESS:    2300396  HIT:    2284610  MISS:      15786  HIT %:    99.3138  MISS %:    0.68623   MPKI: 0.07893
L2C LOAD TRANSLATION ACCESS:       1205  HIT:        811  MISS:        394  HIT %:    67.3029  MISS %:    32.6971   MPKI: 0.00197
L2C PREFETCH  REQUESTED:          0  ISSUED:          0  USEFUL:         18  USELESS:       1097
L2C USEFUL LOAD PREFETCHES:         18 PREFETCH ISSUED TO LOWER LEVEL:       1136  ACCURACY: 1.58451
L2C TIMELY PREFETCHES:         18 LATE PREFETCHES: 0 DROPPED PREFETCHES: 0
L2C PREFETCHES SAME FILL-ORIGIN LEVEL: 0 DIFFERENT FILL-ORIGIN LEVEL: 0
L2C AVERAGE MISS LATENCY: 29.4272 cycles
L2C RQ	ACCESS:   16648349	FORWARD:          0	MERGED:          0	TO_CACHE:   16647776
L2C WQ	ACCESS:    2300396	FORWARD:        573	MERGED:          0	TO_CACHE:    2300396
L2C PQ	ACCESS:      58322	FORWARD:          0	MERGED:          0	TO_CACHE:      58322

L2C Instructions Evicting Data 102343
L2C Translations Evicting Data 299
L2C Data Evicting Data 127644
L2C Instructions Evicting Instructions 229793
L2C Translations Evicting Instructions 95
L2C Data Evicting Instructions 92758
L2C Instructions Evicting Translations 129
L2C Translations Evicting Translations 0
L2C Data Evicting Translations 281
L2C Dense regions hint from L2: 0
PSCL5 TOTAL     ACCESS:       1205  HIT:       1205  MISS:          0  HIT %:        100  MISS %:          0   MPKI: 0
PSCL5 LOAD TRANSLATION ACCESS:       1205  HIT:       1205  MISS:          0  HIT %:        100  MISS %:          0   MPKI: 0
PSCL5 PREFETCH  REQUESTED:          0  ISSUED:          0  USEFUL:          0  USELESS:          0
PSCL5 USEFUL LOAD PREFETCHES:          0 PREFETCH ISSUED TO LOWER LEVEL:          0  ACCURACY: -nan
PSCL5 TIMELY PREFETCHES:          0 LATE PREFETCHES: 0 DROPPED PREFETCHES: 0
PSCL5 PREFETCHES SAME FILL-ORIGIN LEVEL: 0 DIFFERENT FILL-ORIGIN LEVEL: 0

PSCL4 TOTAL     ACCESS:       1198  HIT:       1198  MISS:          0  HIT %:        100  MISS %:          0   MPKI: 0
PSCL4 LOAD TRANSLATION ACCESS:       1198  HIT:       1198  MISS:          0  HIT %:        100  MISS %:          0   MPKI: 0
PSCL4 PREFETCH  REQUESTED:          0  ISSUED:          0  USEFUL:          0  USELESS:          0
PSCL4 USEFUL LOAD PREFETCHES:          0 PREFETCH ISSUED TO LOWER LEVEL:          0  ACCURACY: -nan
PSCL4 TIMELY PREFETCHES:          0 LATE PREFETCHES: 0 DROPPED PREFETCHES: 0
PSCL4 PREFETCHES SAME FILL-ORIGIN LEVEL: 0 DIFFERENT FILL-ORIGIN LEVEL: 0

PSCL3 TOTAL     ACCESS:       1198  HIT:       1198  MISS:          0  HIT %:        100  MISS %:          0   MPKI: 0
PSCL3 LOAD TRANSLATION ACCESS:       1198  HIT:       1198  MISS:          0  HIT %:        100  MISS %:          0   MPKI: 0
PSCL3 PREFETCH  REQUESTED:          0  ISSUED:          0  USEFUL:          0  USELESS:          0
PSCL3 USEFUL LOAD PREFETCHES:          0 PREFETCH ISSUED TO LOWER LEVEL:          0  ACCURACY: -nan
PSCL3 TIMELY PREFETCHES:          0 LATE PREFETCHES: 0 DROPPED PREFETCHES: 0
PSCL3 PREFETCHES SAME FILL-ORIGIN LEVEL: 0 DIFFERENT FILL-ORIGIN LEVEL: 0

PSCL2 TOTAL     ACCESS:       1205  HIT:       1205  MISS:          0  HIT %:        100  MISS %:          0   MPKI: 0
PSCL2 LOAD TRANSLATION ACCESS:       1205  HIT:       1205  MISS:          0  HIT %:        100  MISS %:          0   MPKI: 0
PSCL2 PREFETCH  REQUESTED:          0  ISSUED:          0  USEFUL:          0  USELESS:          0
PSCL2 USEFUL LOAD PREFETCHES:          0 PREFETCH ISSUED TO LOWER LEVEL:          0  ACCURACY: -nan
PSCL2 TIMELY PREFETCHES:          0 LATE PREFETCHES: 0 DROPPED PREFETCHES: 0
PSCL2 PREFETCHES SAME FILL-ORIGIN LEVEL: 0 DIFFERENT FILL-ORIGIN LEVEL: 0

LLC TOTAL     ACCESS:     588259  HIT:     587372  MISS:        887  HIT %:    99.8492  MISS %:   0.150784   MPKI: 0.004435
LLC LOAD      ACCESS:     522575  HIT:     521720  MISS:        855  HIT %:    99.8364  MISS %:   0.163613   MPKI: 0.004275
LLC RFO       ACCESS:      29237  HIT:      29237  MISS:          0  HIT %:        100  MISS %:          0   MPKI: 0
LLC PREFETCH  ACCESS:       1136  HIT:       1104  MISS:         32  HIT %:    97.1831  MISS %:     2.8169   MPKI: 0.00016
AGUS PREFETCH L1 MISS: 0
LLC WRITEBACK ACCESS:      34917  HIT:      34917  MISS:          0  HIT %:        100  MISS %:          0   MPKI: 0
LLC LOAD TRANSLATION ACCESS:        394  HIT:        394  MISS:          0  HIT %:        100  MISS %:          0   MPKI: 0
LLC PREFETCH  REQUESTED:          0  ISSUED:          0  USEFUL:          0  USELESS:          0
LLC USEFUL LOAD PREFETCHES:          0 PREFETCH ISSUED TO LOWER LEVEL:         32  ACCURACY: 0
LLC TIMELY PREFETCHES:          0 LATE PREFETCHES: 0 DROPPED PREFETCHES: 0
LLC PREFETCHES SAME FILL-ORIGIN LEVEL: 0 DIFFERENT FILL-ORIGIN LEVEL: 0
LLC AVERAGE MISS LATENCY: 166.392 cycles
LLC RQ	ACCESS:     552206	FORWARD:          0	MERGED:          0	TO_CACHE:     552206
LLC WQ	ACCESS:      34917	FORWARD:          0	MERGED:          0	TO_CACHE:      34917
LLC PQ	ACCESS:       1136	FORWARD:          0	MERGED:          0	TO_CACHE:       1136

LLC Dense regions hint to LLC: 0

RAW hits: 1511566
Loads Generated: 48732580
Loads sent to L1D: 47221012
Stores Generated: 28029087
Stores sent to L1D: 28029091
Major fault: 0 Minor fault: 1251
Allocated PAGES: 1251
ucb ended
-----------------------------------------------------------------------------------------------------------------------------------------------------------------------------------------------------
Offsets elements: 197962 1465993220911 2571299 -1465995990172 202604 1465995787568 -1465995788720 1152 -202604 1465995990172 -1465995787568 1465993216257 -1465993418861 -2571312 -1 14 -1465993418873 -2571309 -1465992344806 22770 -1108110 1108110 -1080118 -27993 1108111 1 2 3 -4 1465992322025 8 56 -1465993238448 1465993238392 1465993238384 -1465993418643 180252 -180489 1465993418915 2571257 -1465995989934 180251 1465993238426 -42 -2571299 -1465993418633 1465993418676 -20 20 -19 19 -1465993418673 1465993418654 2560005 -2560006 -23 23 -1465993418637 -181684 1465993600319 11 -6 -1465993418638 1465993418656 -1465993600342 -1465993401813 1056996 -1057180 1057180 -871499 876333 -1078890 17961 246 1465993400666 -1465993401817 180889 1465993220927 21 -1465993418865 17941 1465993400900 64 1465993238448 -54 -1465993418883 180489 1465995809683 -2571300 10 55 -180240 180240 1465993238382 -2571290 1465993238394 -1465993418882 180490 1465995809682 -11 12 1465993418882 -1465993238392 -2571301 -1465993418871 2571290 -2571289 4 -17965 1465993419036 -1465993418925 1465995990061 -1465995968607 5 48936 -3 -54681 140969 -156794 1465993418863 2571309 -1465993589437 1465993589436 -1465993238378 1465993238377 -180241 180241 1465993238375 -351060 1465993589435 -1465993238375 -180250 -183092 363342 -363342 1465993601717 -1465993589435 1465993589437 1465993238378 327364 1465993262074 -1465993418866 20623 1465995969549 -2571136 70392 -70392 21470 14422 34504 -48937 -70506 -2571308 -1465993418863 1465993418869 2571303 -2571305 -180490 1465993418871 2571301 -2571302 -10 -1465993418937 -1465992344816 4834 -876334 -186389 1059227 1465992343502 -1465993418896 1465993418895 2571277 -1465995990158 16144 1465993402738 -1465993418895 -2571303 27 -1465993418658 1465993418631 -2 -1465993418867 1465993418867 2571305 -2571306 29 -27 -1465993418869 -1465993418631 1465993418632 1465993418866 2571306 -2571307 -1465993418857 1465993418856 -1465993402715 1465993402715 -1465993216263 -1152 -206719 5267 1465993419015 2571157 -1465995834955 -155217 -1465993216308 1465993216309 -1465993217415 -3490 1465993220905 1465993418870 2571302 -1465993418868 1465993418873 13 -9 9 -1465993418884 -1465993418872 1074056 1465994916116 -1465995973296 1465993402019 -1465992340006 1465992340006 -13 -1465992344827 -876333 1465993216326 -1465992339992 1465992340005 1465993418843 2571329 -2571276 1465993418605 -1465993418842 -2571331 -1465993418602 1078652 1465992339952 -1465993418843 -2571330 -1465993418844 1465993418883 2571289 -1465995809682 -180251 -238 -1465993418604 1465993238352 -1465993418840 1465993418840 2571332 -2571333 -1465993418600 1465993418603 -1465993418599 1465995978659 -2560060 -1465993418841 2571136 -1465995990061 -48938 -21565 15825 1465993403014 -1465993348331 1465995968602 -1465994911438 1465992340108 42 -2571288 -4398024804010 2932031385126 21454 48935 -54679 141622 -157447 1465993418835 2571337 -2571337 49 2932031385364 -2932031385364 4398024803962 -1465993418836 1465993418837 2571335 -2571335 -1465992340103 1465992340105 -1465992340105 1465992340146 1465993238347 -1465993418837 -1465993238347 -180252 1465993238343 -2571338 -2571336 -1465993589405 170808 -182611 1465993601210 44 1465993418595 -1465993238343 1465993238344 -1465993418833 -1465993418835 -1465996160742 1465993589453 -1465995919669 1465993348331 -1465993418834 -1465993418724 15714 1465995974347 -1465993397318 -21327 -109985 -48936 158921 915127 -915127 1465993238346 -2571332 -1465992340106 1465993418833 -1465993238345 1249308 -1078738 1078734 -2932032463860 4398027375298 -1465995832725 921288 -1078735 -4398027375298 81 2932031385045 2571339 -2571340 -1465992340096 -2932032463861 2932032463864 1465992340097 -2571339 1465993418842 2571330 -1465994911434 -2932031385045 2932032463780 1465994911437 -2932031385126 4398024803960 -1465992340099 1465994911436 -2932032463863 1465992340100 -1465992340109 2932031385171 -45 -1465996160127 169955 1465993403010 -1465993348329 1465995968603 -1465994894556 -1095575 1078693 16883 -16883 1465992340104 -1465993418794 1095573 1465992323222 -1465993418839 1465993418839 2571333 -1465992323222 -1095379 1095379 1465992323216 -1465992323216 -1465992323221 1095617 1465994894555 -1095617 -1465993348326 48937 1465995919665 -1465994916095 -1074040 1465993418798 1465992323218 -1074077 -1465993418595 -1465993418831 1465993418831 2571341 -2571342 -1465993418592 1073840 1465992344754 -1465992344754 1465993418834 2571338 -1465992344762 -1078758 1465993423513 -1465992323218 -70504 -1465993403007 139397 1465995834950 -1465994894555 -1100223 1100222 1465992323220 -1465993423443 159828 940394 -4647 1100223 -21581 -1465993382833 1465995954172 -1095580 21532 1465993348330 -1465993389189 1465995960527 -1465995968603 1465993348335 7 1465993403015 -1465993348334 1465992323228 1095616 1465994894556 -1465992323225 1465992323232 -1465992323233 -1106761 11145 1465994911438 1465992323221 -1465993418838 1465993418838 2571334 -2571334 -1465992323217 1465992323217 -1095378 1095378 -1274599 1274599 -1274598 179220 -239 1074077 1465994916095 -1465992344759 1078758 1465993423518 -1095616 1465993423517 1083416 -1465994911437 170570 -1465992323223 -16882 -921287 1465993261393 1465993418844 2571328 -2571329 -1465993400644 -725 180466 -179741 -197948 -1465995989929 1465995978542 -1465995958714 1465995970101 -11387 11387 -1465993398771 1465993398771 -1465993263648 -165680 11204 -2932031385884 4398024804036 -1465993263676 -718 -1465995989886 1465995931508 -8 58386 -58033 53072 -2566370 -1465992344839 -1074056 6 1465995990166 -1465996058155 1465993486879 -59 -1465993418802 16673 1465993402164 -1465992322046 1465992322046 -1108112 1108112 -21 22 -22 125 -125 1080145 -1096853 1096827 1465994893345 -1465994893345 1080118 -1108113 1108113 -1096579 159348 1465993259237 158 -1465993259395 1465993259239 -1465993259239 873339 -829968 1465993215868 -1465993215954 86 1465993215866 -1465993215952 893947 -939373 -157206 159347 -159594 36 1108158 -1080001 -16591 1465993418712 -1465993400847 1465993400691 -1465993402128 -24 -1096829 1096828 -1080120 1465995973464 -1465994893346 -11534 170881 1465993259395 -829981 -76 -43282 43371 1465993215867 -1465993215868 893862 -893951 89 -202718 -1465993261396 1465993261397 35 -35 -1465993418589 1465993418647 -25 -1465992322045 1465993430157 1465993418836 -1465993402000 1079955 130 -130 1080150 -1096858 1096830 -1080121 937234 -63895 63896 -893877 1465993215957 -1465993259242 -2190 1465993261432 -1465993418588 1465993259242 -1465995989923 -1465992344779 -1108111 11285 -1465992322070 1465992322008 -1465992322006 1465992322007 -1465992322010 -1465993418830 -62 2571336 -1465992322009 1465992322011 -1465993430122 1465992322006 -1465992322005 1465992322005 -1465993588986 170150 -1465993402576 -16013 16013 1465993402730 -1465993402730 1465993402636 -1465993402636 182507 -198527 -1465993220129 1465993220072 -1465993220071 -182508 -16012 16011 -16259 57 -1074050 -1465993400929 1465993400872 33 -33 -1465992322014 18 132 -132 1080152 -1096860 1096831 -1080122 1465993259241 -1465992385902 63897 -937236 -159347 202705 -45520 2162 32 24 161276 1465995828896 -1465993257620 -161036 161036 1465993257620 -1465993257618 1465993257618 -56 -1465993257562 902233 -1063271 -1465992355384 1465992355384 -1063512 34 31 -1465992344815 1465993401995 -1465992339981 -4834 1465995931853 -345 58378 -4961 54 1465993418604 -1465993418601 1465995989933 -1465992339951 1465992339951 1465993418841 2571331 -1465993257594 1465993257617 -1465992340005 1078653 -1078652 1465994899895 -2559890 -55 -1465992339949 1465992339949 -1465995832167 -158005 -1465992344784 -1056125 184625 1465993216286 -1465993261954 -156888 1465995990169 -1465995989925 155836 1465993262907 -94 -1465993418649 1465993418650 -1465993262810 59409 -59409 59402 1465993203408 -1465993203408 1465993203407 -1465993418655 1465993203351 -1465993262752 -156083 215485 -59405 -155835 155835 -1465995787615 871499 -1056382 184882 -45668 878002 -878823 5425 -172457 172474 1465993257318 -1465992344772 -1056135 1060978 -876343 -184627 -17929 -1465994914776 -1075396 1465993418828 2571344 -2571347 -1465993418824 -2571343 -26 -1465993418847 -2571323 -16878 -4682 -805 1465993262766 -1465993418849 -70503 -1465993397274 -5740 1465993403013 -1465995919666 135224 1465993262045 -1465995990133 653 -692 -1465995832172 1465993260806 -1465993418806 1465993418805 2571367 -2792 1465993263597 -1465993258813 -159990 1465993418801 2571371 -2571371 -5 1465993418800 -1465993260800 1465993260801 -2571370 -1465993258816 1465993258811 42378 1465993216432 -1465993258811 1465993258813 -1465993418801 -1465995830181 -159744 159744 1465993258809 190 -1465993258998 -159992 1465993402975 -1465993348294 -1465994894550 -935630 38994 -198983 159988 -159743 -248 1465993418802 2571370 -1465993216431 -42380 42379 -4594 1465993221030 -1465993418805 1465993402976 -1465993348296 1465992323183 -1465992323182 1465992323181 -1465993216435 -202369 -2571365 -1465993216438 -202131 202131 1465993216438 -1465993216436 836413 1465992380023 -185313 1465993401747 -1465993418813 -1465995833366 1465993262007 -7 -1465993262001 1465993262001 1465992323182 8064 1465993389156 -70505 -1465993397233 -2571366 -1465992323187 2932032463860 -1078734 1465992323184 -1465993418563 1465992323179 -1465992323180 1465992323180 -1465993418799 2571374 -1465992323184 -1278469 1278469 -1264930 1465993588114 -2571373 -1465992323183 16879 -937616 -1465993418800 1465993418812 -1465993400682 -18076 17912 -17275 17275 138921 -167782 167785 4106 1465993257805 -1465993429640 1465993429646 -1465993418808 -2571369 40 -1465992323226 -16881 2932031543127 -158001 158000 1465995832172 1465993418808 2571364 1465993263598 2571366 -1465995830182 1465993258816 -1465993260805 -1465993258818 42380 -202370 -1465992323191 -2571364 1465993418804 -1465996173024 183091 1465992323189 -1465993588119 1465993588121 -1465993418807 -937615 1465995832171 1465992340070 -1465993400601 -722 180463 1465993220894 1465993402982 -1465993348300 -1465995792162 -197692 -318 1465992323191 -1465993418568 1465993418803 -1465992323186 1465992323187 -1465992323189 -1095377 -1465993418804 -1465993402978 54680 1465993397233 2571369 1465992323188 -2571367 -1465992323188 1095380 1465993418806 -897605 -197772 1465995978545 -1465995776416 -4356 1465995792159 -1465995787803 1465995776417 -1465995776417 1465993220793 2559979 1465993216436 935627 -32 -1465992323193 1465992323194 -1465993262006 881974 -881975 938816 -938816 -156806 -48922 -29534 -111 1465993418807 -1465993348301 1465995919667 135237 40969 1465993221038 -1465993382804 1465995954169 -1465995919665 1465993348305 -1465993418811 -2571363 54683 1003545 1465994916120 1074053 1465992344777 1465993403006 -1465993348325 -1465994957205 41085 -871500 -45666 -156834 637 160265 -171492 171492 1465993257873 1465993403005 -1465993348324 -1465994957174 1465992385836 1465993418830 -1465993397263 -5741 -1465995919663 1465993397260 -1465992343444 -1075386 -1465994957176 41058 -1074054 -21566 -1465993348320 1465995968601 -1465994895298 1465992323957 -1465992344778 1465992344780 1465992344779 -1465992344780 1465992344781 -1465992385839 -1032996 8063 -8073 48938 1465993348321 -70510 -1465993389307 1465995960649 1003549 -1465993418593 -1465995820789 916057 1465994916119 -11386 -1465995820790 1465992344778 2559954 -2559955 2571342 -1465992344781 -1074055 -1465994916118 1465993403008 -1465993348328 -48935 -1465995832731 -157194 157756 1465993260987 -1465993260987 1465993260830 -1465993260830 43526 -201529 1465993403007 -1465993348327 -1465995832758 -157414 158003 1465995832168 157757 1465993260825 -1465993260827 -43526 -158004 1465993418832 2571340 -1465993418583 157755 1465993260831 -876043 -209254 209254 1465993220823 -1465993430078 1085297 11244 -2571328 -1465992344797 21564 -16879 -1078737 -1465994916116 -1465995787616 -45665 917167 -1465993401633 1056852 -1060771 1465993400877 -1465993261956 -139214 138393 -172456 10964 -912556 1465995828672 -41065 -172466 213523 161500 1465993257395 2571276 -1465995828680 -161509 -1465993418848 -1465995990058 21480 1465993397442 -1465993418924 21450 1465993397282 -1465993418733 15612 1465993381648 -1465993395578 14299 -14300 1465993395578 -1465993418731 23152 -1670 -12 -21469 -21562 -1465993403018 -1465992344793 -202557 -198010 -11244 1465996001416 48939 1465993397267 -1465993348332 -1465993403012 -1465993220829 1465993430083 1465993220828 -48939 1465993397268 -1465994902818 1465992331489 -1465993263621 42788 1465993220833 -181036 1465993599641 -1465993418605 378808 1465993430087 -2571316 -1465992331502 -1087116 1087116 1465992331502 -17 -1465992331489 -1087354 -1465993389209 1465995960543 -1465993397272 1465993348333 -1465993382838 -1465993418608 1078659 1465992339958 -1465993418856 -1465995972683 1056566 -41087 1108156 -63903 1465992385872 -1465992385872 -872010 872010 -1465992344786 -876041 -198012 4067 1465993257881 -1465993220828 209256 -1465995792159 871946 -1069958 38022 897610 1465992323213 -1465992348877 -913420 -167284 10746 -21567 -1465993403006 54688 -48941 1465995968600 -1465995833634 920128 -920128 917518 202594 1465995787578 -1465995787578 -202594 -1465994955361 -1034808 1034808 -1034564 1034564 1465992384179 -167 -1465992384011 1034563 -833366 1465993217379 -1465993216231 1465993418825 2571347 836248 -813342 -225498 225503 1465995764670 -1465995766151 427 -63231 -167198 231479 -1465995765728 -224444 1465993418821 2571351 -2571352 -1465993193322 -1086 1097 -1096 121 965 -1069 -224437 -1465995996161 1465993424814 -1465993193316 1465993193317 -1465993424814 1465993424813 1465993418824 2571348 -2571349 -1465993193314 -1088 254573 -253472 253472 -253474 -1061 1055 -25753 25756 26848 1088 -1100 110 1465993194303 -1465993194414 1099 1465993193315 -1050 -224448 -1465993400617 -51 179793 4645 -47400 -2566386 1465993418829 2571343 -2571346 -1465993216232 1465993216236 1038843 1465994951329 -1465994894553 117 -56894 -1038592 1095485 -1095736 -1465993419036 -1465993418717 1465993418716 1465995919669 -1465995968591 -8076 1017275 -968339 -2571344 -1465993418828 -1465992342169 -1087406 10740 -1095622 1465993418827 2571345 -1465993418825 1465993403000 -1465993348316 1465993397256 1465992331476 -1465992323213 1465992323208 -1465992323208 -1095385 1095384 1465992323207 -1465993418829 -1465992323207 -1465992323206 -1095384 1095385 1465992323203 -1465992323202 1465992323204 -2571341 -1465993418826 -1465992342161 -156538 1087354 1465994902818 -1465992331476 -1465992331473 1465992331474 2571346 1465992331477 -10674 1465992342131 -1465993535611 117026 -117026 1465993535612 -1465993418823 1087105 -10663 -1465992331467 1076453 -1465993418586 1465993418586 -2571348 1465993418826 1465992342136 -1465992342136 1465992342137 -1465993535615 117025 -117025 1465993535617 -1465992331479 -1465993389201 -1465995968601 1006156 25 66259 1465992275878 -1465994847218 1465992275877 -1465993418827 225502 1465995764674 -1465995765724 1050 224444 1465995765728 -2571354 -1465992275865 -987749 1465993263629 -1465992275879 1465992275872 -1465993193318 -225508 -1465993418753 18075 1124802 -917447 851292 -851296 -1465992275871 -1142950 225498 -1465995765760 -1091 109 -24659 25636 917451 -943100 939026 4069 -917442 663977 -254575 1101 -25645 876942 -852393 -25756 25757 944306 -917452 851288 -851284 -1476 1481 917457 -1142960 1142959 -943101 1465995790314 -1465994913378 1465992342033 -1465992342029 -37917 40830 63243 1465992275873 -1465992339116 -9642 -31188 104072 -66270 626 -626 2401 -40829 -63243 -3027 -6618 6618 625 -625 2402 -63242 -3028 3027 31187 72885 -72886 7242 -6617 6617 1465992339117 -1465992339117 1465995764669 -1465995790314 25640 105 -24655 -25649 870205 68816 -1205429 1143348 -851297 -225503 199858 -1465994913372 -6735 -844554 844554 -225511 -2571368 -1465993193300 851291 1465992342009 -1465992348744 79113 -923680 -25755 26856 -1465992342008 -6732 1465992348761 -1465992269648 1465992269649 -1465992342030 1465992342031 -1465992348761 -6225 -71696 65438 -65438 -832 832 71663 17 -6242 6225 72520 -71706 -48 -766 72495 -6254 -72495 65569 6953 -6252 66110 6385 28 -6253 12023 -36 -11988 11988 -11989 11989 1465992330154 1465992269650 -1465992275866 -72890 72890 -66161 72384 -6223 6224 -1465992275874 -1142955 1070065 1465994920107 -1465994840994 6248 -60535 60508 -2354 -79 80 -921323 923675 -949320 1465993218970 -1465992342033 -1076795 -2571345 -1465992342150 -1076680 -1465994913506 66284 -1142954 1465993418820 -1465992275870 1465992275871 -1465995764670 1465993194369 2571359 -1465994847222 -987753 987752 2571352 -2571353 -1465992342153 1465992342160 11994 -1088433 1088434 -11992 -1087405 1087405 -1076666 1142950 1465994847222 1465993418816 2571356 1465992275865 -1465993193317 -1054 -1465992275854 -987746 987750 1465992275864 -2571357 -1465993418821 1146826 1465994843346 -1465994843346 -1146826 1465993418819 2571353 -1465993418820 -1465992342145 -1087407 1087432 -14 -1465994951328 104107 1465993194383 108 -24658 917441 -913378 917454 -72893 -844562 72378 -923675 -851289 835284 -835283 1465993193319 -1465992275876 -917446 1465993193323 -1465992379988 -1038843 -1465994894436 -1095486 1095369 -56776 56776 -1095620 -1465993389224 1465995960564 48941 1025109 -1465993220822 -41219 -1465993348330 -1465995832764 -614 1465993262041 -1465993262042 1465993403011 1465993262042 -1465993220824 1465993220826 -1465993262044 613 614 -613 -156795 -1465995834950 1573 -40016 -157997 -1465995790445 -210452 210453 1465993219308 111 1465993403009 -1465994846559 -69557 -874328 2867 -202595 836249 56893 1465994894436 -1465994894435 -118 -1095368 -1465993389184 968339 1465992379986 -1465993418832 -1465993220826 945601 -945601 -208741 167523 -601 986807 -1154342 10729 1143614 -986808 1465995833366 -1465994954868 -1035304 1035308 1465994954864 -1465992383522 1465992383523 810864 -880099 1465993263621 155205 1465995834967 -1465993263619 -221567 1465993485184 -1465993418822 1465993418822 2571350 -1465992383517 1465992383520 -1465995834967 -221545 1465993485161 -1465992383516 1465992383517 -1465993193315 2571349 -1465993400678 1017156 -809801 -225502 -24633 1465995790357 -1465994954864 225509 -1465995764669 809801 -835489 24585 1090 809806 -809806 -990 1098 812769 -813870 1095 -1093 38 254535 -254576 -24584 279160 836660 -25691 25683 -25677 24201 1035313 -835490 1465995790349 -1465995790357 835492 838961 -839903 -636 840540 -3473 1465992383518 -1465993485371 221759 883565 -839902 1465993219950 -1465993219950 -198876 -25682 1465995790345 -1465995790349 24589 -27272 26280 -24696 -199821 199825 -266373 264785 1465995791935 -1465995791935 840036 -812763 -25686 1584 1465993218988 -1465993193311 -13090 -212408 1465993418823 -18 -1465993193297 1465993193296 -1465993194399 1465995765765 -1465995790354 1465993219007 -1465993220588 415 13756 822899 -822898 -31707 854605 -1465993263612 25506 17485 840794 -1105544 247248 18237 13461 822898 883771 -858282 31707 -278955 1101853 -854601 1465993238119 3605 880159 -1105523 -854599 18306 1465993219811 883768 -858279 -247248 247253 31702 -57196 880094 -1465993219887 -18230 -25495 25489 18245 13462 -53572 21871 858272 -1105526 265578 839948 -3672 -1101853 1465993485371 883766 -1105525 -1465993238118 -25494 3627 880139 1465993238124 -1465993238119 44796 -40990 40988 24692 -266369 1104821 -1038273 158837 66666 1465995764661 -1465995764662 -25687 1465993218982 -1465993259966 66674 -1465993193295 -1465993193298 1465993193301 -1465993218988 1465993219002 -1465995765765 -224407 1080305 -882069 -1465995791520 26851 -25680 12587 1465993206418 -1465993193323 25688 835283 -860973 -1465993259986 1465993259988 -1465992338521 -44998 -40980 921468 -44999 1465992383519 -1465993485372 932937 -7845 -1465992338518 -925095 -221759 1154806 -7955 45001 1465992338518 -1465993263613 1154861 -8010 933084 -1154843 1465993485372 1465992338522 1035304 1465994954863 -1465994954863 -876472 40978 -199815 1035312 44993 -44997 1465994909867 -1465994954860 -1080308 -1465992383521 -880103 1465993263625 1465993262026 -871462 -213310 213310 1465993216242 -1465992330539 -931491 1465993262029 -1465993262029 -1465993262041 1465993261428 41206 -1465993257882 -198011 -1465992344787 1465992344789 -1465993262047 -602 1465993262038 -1465992344792 1465993262033 -1465992330551 1465992330552 -1465992330552 -1088059 1088059 -9577 -1465994911436 1465992340107 -1465993400636 876105 -916612 916612 1465993260840 147 1465993260841 -1465993260841 -1465993261430 589 -44115 21581 1465993397262 -1465995954167 121999 -136435 -70256 1465995954167 1003552 1465993216288 156885 247 1465995989925 -1465995834089 -95 -1465993418650 1465993262810 -1465993203401 1465993203400 155846 1465993203353 -1465993262754 156080 215240 -215488 1017216 -832334 -821 -172474 1085021 1060970 -1078899 202556 1465995787616 1465992343431 -2571325 -1465992344795 -16880 -1465993400637 1465993220899 1062014 -1465994916119 209255 1465993220829 197 -1465993403010 54679 -1465995834949 1465993263615 1465993430082 -1465993220827 -1465993263616 42787 209257 -1465993263620 -834983 -198013 -197775 197775 834983 1465992385840 1465993418599 -1465995969549 -20623 -1465993418727 1465993418925 -199 48922 -34503 -14431 -1465992385848 -1465992385841 -874997 
Potential of Offsets elements: 28.3059 28.3059 200.306 511.306 28.3059 28.3059 28.3059 28.3059 28.3059 32.3059 28.3059 28.3059 28.3059 28.3059 2034.11 163.306 28.3059 28.3059 28.3059 28.3059 28.3059 28.3059 28.3059 28.3059 28.3059 1874.55 928.306 842.306 833.306 28.3059 292.306 170.306 28.3059 28.3059 28.3059 28.3059 28.3059 28.3059 28.3059 28.3059 112.306 28.3059 28.3059 28.3059 28.3059 28.3059 28.3059 148.306 100.306 643.306 211.306 28.3059 28.3059 28.3059 28.3059 430.306 128.306 28.3059 28.3059 28.3059 410.306 165.306 28.3059 28.3059 28.3059 28.3059 28.3059 28.3059 28.3059 28.3059 28.3059 233.306 28.3059 28.3059 28.3059 28.3059 28.3059 28.3059 84.3059 28.3059 28.3059 28.3059 28.3059 28.3059 29.3059 28.3059 28.3059 54.3059 28.3059 120.306 28.3059 56.3059 28.3059 28.3059 28.3059 28.3059 28.3059 28.3059 28.3059 359.306 386.306 28.3059 28.3059 28.3059 28.3059 28.3059 28.3059 487.306 28.3059 28.3059 29.3059 304.306 264.306 1207.31 28.3059 1159.31 36.3059 28.3059 28.3059 28.3059 28.3059 28.3059 28.3059 28.3059 28.3059 28.3059 28.3059 28.3059 28.3059 28.3059 28.3059 28.3059 30.3059 28.3059 28.3059 28.3059 28.3059 28.3059 28.3059 28.3059 28.3059 28.3059 484.306 94.3059 28.3059 28.3059 28.3059 28.3059 28.3059 28.3059 28.3059 148.306 79.3059 28.3059 28.3059 28.3059 28.3059 28.3059 28.3059 28.3059 28.3059 365.306 28.3059 109.306 66.3059 28.3059 28.3059 28.3059 28.3059 28.3059 28.3059 28.3059 73.3059 28.3059 28.3059 28.3059 28.3059 35.3059 28.3059 28.3059 914.306 28.3059 28.3059 28.3059 28.3059 28.3059 28.3059 28.3059 28.3059 28.3059 28.3059 28.3059 298.306 30.3059 28.3059 28.3059 28.3059 28.3059 28.3059 28.3059 28.3059 28.3059 28.3059 28.3059 28.3059 28.3059 28.3059 28.3059 28.3059 28.3059 28.3059 28.3059 28.3059 28.3059 120.306 282.306 461.306 28.3059 28.3059 28.3059 28.3059 63.3059 28.3059 28.3059 28.3059 70.3059 28.3059 28.3059 28.3059 28.3059 28.3059 28.3059 28.3059 898.306 62.3059 364.306 142.306 66.3059 28.3059 28.3059 28.3059 88.3059 643.306 28.3059 66.3059 28.3059 28.3059 28.3059 28.3059 28.3059 28.3059 28.3059 28.3059 28.3059 28.3059 28.3059 28.3059 28.3059 28.3059 28.3059 28.3059 28.3059 28.3059 28.3059 183.306 28.3059 28.3059 28.3059 28.3059 28.3059 36.3059 28.3059 28.3059 28.3059 105.306 28.3059 28.3059 28.3059 28.3059 157.306 469.306 127.306 71.3059 28.3059 28.3059 28.3059 28.3059 28.3059 28.3059 28.3059 28.3059 28.3059 28.3059 28.3059 28.3059 28.3059 28.3059 28.3059 28.3059 28.3059 28.3059 28.3059 28.3059 28.3059 28.3059 53.3059 28.3059 28.3059 28.3059 28.3059 28.3059 28.3059 28.3059 310.306 136.306 840.306 36.3059 100.306 568.306 28.3059 28.3059 28.3059 28.3059 28.3059 28.3059 28.3059 28.3059 28.3059 28.3059 28.3059 28.3059 28.3059 28.3059 28.3059 28.3059 388.306 28.3059 28.3059 28.3059 28.3059 28.3059 28.3059 28.3059 28.3059 28.3059 28.3059 28.3059 28.3059 28.3059 28.3059 28.3059 28.3059 28.3059 28.3059 83.3059 568.306 28.3059 42.3059 28.3059 28.3059 28.3059 28.3059 28.3059 30.3059 28.3059 28.3059 28.3059 28.3059 28.3059 28.3059 28.3059 28.3059 28.3059 28.3059 28.3059 28.3059 28.3059 28.3059 28.3059 28.3059 28.3059 28.3059 28.3059 28.3059 28.3059 28.3059 28.3059 28.3059 28.3059 28.3059 28.3059 28.3059 28.3059 28.3059 28.3059 203.306 73.3059 28.3059 75.3059 168.306 424.306 292.306 203.306 138.306 29.3059 28.3059 28.3059 28.3059 28.3059 28.3059 28.3059 28.3059 28.3059 28.3059 28.3059 28.3059 28.3059 28.3059 28.3059 28.3059 28.3059 28.3059 28.3059 28.3059 28.3059 28.3059 356.306 28.3059 28.3059 28.3059 28.3059 28.3059 28.3059 28.3059 79.3059 89.3059 744.306 28.3059 50.3059 28.3059 28.3059 28.3059 28.3059 28.3059 28.3059 28.3059 28.3059 28.3059 28.3059 28.3059 28.3059 28.3059 28.3059 28.3059 28.3059 28.3059 28.3059 28.3059 28.3059 28.3059 28.3059 28.3059 28.3059 28.3059 28.3059 28.3059 28.3059 28.3059 28.3059 28.3059 28.3059 28.3059 28.3059 28.3059 28.3059 28.3059 348.306 238.306 124.306 28.3059 28.3059 28.3059 28.3059 28.3059 28.3059 28.3059 28.3059 28.3059 28.3059 28.3059 28.3059 28.3059 28.3059 28.3059 28.3059 34.3059 28.3059 28.3059 28.3059 28.3059 28.3059 569.306 28.3059 28.3059 28.3059 28.3059 28.3059 28.3059 663.306 28.3059 28.3059 28.3059 28.3059 28.3059 28.3059 33.3059 28.3059 112.306 79.3059 28.3059 96.3059 66.3059 82.3059 28.3059 28.3059 28.3059 28.3059 28.3059 28.3059 28.3059 28.3059 28.3059 28.3059 28.3059 28.3059 28.3059 38.3059 28.3059 28.3059 28.3059 28.3059 28.3059 28.3059 28.3059 40.3059 28.3059 28.3059 28.3059 28.3059 28.3059 28.3059 28.3059 65.3059 28.3059 28.3059 28.3059 28.3059 28.3059 54.3059 28.3059 447.306 28.3059 28.3059 28.3059 28.3059 28.3059 60.3059 41.3059 28.3059 28.3059 28.3059 28.3059 28.3059 28.3059 28.3059 28.3059 28.3059 28.3059 28.3059 28.3059 28.3059 35.3059 33.3059 28.3059 28.3059 28.3059 28.3059 28.3059 28.3059 28.3059 28.3059 28.3059 28.3059 28.3059 28.3059 28.3059 29.3059 28.3059 58.3059 31.3059 28.3059 28.3059 28.3059 28.3059 28.3059 86.3059 28.3059 28.3059 28.3059 28.3059 28.3059 28.3059 28.3059 28.3059 28.3059 28.3059 28.3059 164.306 28.3059 28.3059 28.3059 28.3059 28.3059 28.3059 28.3059 28.3059 28.3059 28.3059 28.3059 28.3059 28.3059 28.3059 28.3059 28.3059 28.3059 28.3059 28.3059 28.3059 28.3059 41.3059 28.3059 28.3059 28.3059 28.3059 32.3059 28.3059 28.3059 152.306 112.306 28.3059 412.306 28.3059 28.3059 28.3059 28.3059 28.3059 28.3059 28.3059 28.3059 28.3059 28.3059 28.3059 28.3059 28.3059 28.3059 69.3059 28.3059 28.3059 28.3059 28.3059 28.3059 28.3059 28.3059 28.3059 28.3059 28.3059 28.3059 28.3059 28.3059 28.3059 104.306 28.3059 34.3059 28.3059 28.3059 28.3059 28.3059 34.3059 29.3059 29.3059 37.3059 28.3059 89.3059 28.3059 28.3059 28.3059 28.3059 28.3059 28.3059 28.3059 28.3059 28.3059 28.3059 28.3059 28.3059 28.3059 28.3059 29.3059 28.3059 28.3059 28.3059 28.3059 28.3059 28.3059 28.3059 28.3059 28.3059 71.3059 28.3059 122.306 44.3059 28.3059 29.3059 28.3059 28.3059 28.3059 32.3059 28.3059 28.3059 28.3059 28.3059 28.3059 28.3059 28.3059 28.3059 28.3059 28.3059 28.3059 28.3059 28.3059 28.3059 28.3059 28.3059 28.3059 28.3059 28.3059 29.3059 28.3059 28.3059 28.3059 28.3059 28.3059 28.3059 28.3059 28.3059 28.3059 28.3059 28.3059 28.3059 49.3059 28.3059 80.3059 28.3059 240.306 86.3059 28.3059 106.306 28.3059 41.3059 28.3059 28.3059 28.3059 28.3059 28.3059 29.3059 28.3059 28.3059 28.3059 28.3059 28.3059 28.3059 126.306 28.3059 28.3059 28.3059 28.3059 28.3059 28.3059 28.3059 28.3059 28.3059 28.3059 28.3059 28.3059 428.306 28.3059 28.3059 28.3059 28.3059 28.3059 28.3059 71.3059 65.3059 28.3059 28.3059 28.3059 28.3059 28.3059 28.3059 28.3059 28.3059 28.3059 28.3059 28.3059 28.3059 28.3059 28.3059 28.3059 28.3059 28.3059 28.3059 204.306 28.3059 28.3059 28.3059 28.3059 28.3059 28.3059 28.3059 28.3059 28.3059 28.3059 28.3059 28.3059 28.3059 28.3059 28.3059 28.3059 28.3059 28.3059 28.3059 28.3059 374.306 28.3059 28.3059 28.3059 28.3059 28.3059 118.306 28.3059 251.306 28.3059 28.3059 28.3059 28.3059 28.3059 28.3059 28.3059 28.3059 28.3059 28.3059 28.3059 28.3059 28.3059 28.3059 28.3059 28.3059 28.3059 28.3059 28.3059 28.3059 28.3059 28.3059 28.3059 28.3059 28.3059 28.3059 28.3059 28.3059 52.3059 28.3059 28.3059 30.3059 28.3059 28.3059 28.3059 28.3059 28.3059 28.3059 28.3059 28.3059 36.3059 28.3059 28.3059 52.3059 28.3059 28.3059 28.3059 28.3059 28.3059 28.3059 28.3059 28.3059 28.3059 28.3059 28.3059 28.3059 28.3059 28.3059 28.3059 28.3059 28.3059 28.3059 28.3059 28.3059 28.3059 28.3059 28.3059 28.3059 28.3059 28.3059 28.3059 28.3059 55.3059 28.3059 28.3059 28.3059 28.3059 28.3059 126.306 28.3059 28.3059 28.3059 28.3059 28.3059 28.3059 28.3059 28.3059 28.3059 28.3059 28.3059 28.3059 28.3059 28.3059 28.3059 28.3059 28.3059 28.3059 28.3059 28.3059 28.3059 28.3059 28.3059 28.3059 28.3059 28.3059 28.3059 28.3059 28.3059 28.3059 28.3059 28.3059 214.306 28.3059 34.3059 28.3059 28.3059 28.3059 28.3059 32.3059 28.3059 78.3059 28.3059 28.3059 28.3059 28.3059 28.3059 28.3059 28.3059 28.3059 28.3059 28.3059 28.3059 28.3059 28.3059 28.3059 28.3059 32.3059 28.3059 28.3059 28.3059 28.3059 28.3059 28.3059 28.3059 28.3059 28.3059 28.3059 28.3059 28.3059 28.3059 28.3059 28.3059 28.3059 98.3059 28.3059 28.3059 188.306 31.3059 28.3059 28.3059 28.3059 28.3059 28.3059 28.3059 28.3059 28.3059 28.3059 28.3059 53.3059 28.3059 28.3059 28.3059 28.3059 28.3059 28.3059 28.3059 28.3059 28.3059 28.3059 28.3059 28.3059 28.3059 28.3059 28.3059 28.3059 28.3059 28.3059 28.3059 28.3059 28.3059 28.3059 28.3059 46.3059 28.3059 65.3059 1820.31 28.3059 28.3059 28.3059 28.3059 32.3059 38.3059 28.3059 28.3059 28.3059 28.3059 28.3059 28.3059 28.3059 28.3059 28.3059 28.3059 28.3059 28.3059 28.3059 28.3059 28.3059 28.3059 28.3059 28.3059 28.3059 28.3059 28.3059 28.3059 28.3059 28.3059 28.3059 28.3059 28.3059 28.3059 28.3059 28.3059 28.3059 28.3059 28.3059 28.3059 28.3059 28.3059 28.3059 243.306 66.3059 31.3059 28.3059 28.3059 28.3059 28.3059 28.3059 28.3059 28.3059 28.3059 28.3059 28.3059 28.3059 28.3059 28.3059 31.3059 28.3059 28.3059 28.3059 28.3059 28.3059 28.3059 28.3059 28.3059 28.3059 28.3059 28.3059 28.3059 28.3059 30.3059 28.3059 28.3059 28.3059 28.3059 28.3059 72.3059 28.3059 28.3059 28.3059 520.306 28.3059 28.3059 28.3059 28.3059 28.3059 28.3059 28.3059 28.3059 28.3059 28.3059 28.3059 28.3059 28.3059 28.3059 28.3059 76.3059 28.3059 28.3059 28.3059 28.3059 28.3059 28.3059 28.3059 28.3059 28.3059 28.3059 28.3059 28.3059 28.3059 28.3059 28.3059 28.3059 72.3059 28.3059 28.3059 28.3059 80.3059 28.3059 116.306 44.3059 32.3059 28.3059 32.3059 28.3059 28.3059 28.3059 28.3059 28.3059 28.3059 28.3059 28.3059 28.3059 28.3059 28.3059 28.3059 28.3059 31.3059 28.3059 28.3059 28.3059 28.3059 28.3059 28.3059 28.3059 28.3059 28.3059 28.3059 28.3059 28.3059 28.3059 35.3059 28.3059 28.3059 28.3059 28.3059 28.3059 31.3059 31.3059 28.3059 63.3059 28.3059 28.3059 153.306 268.306 28.3059 28.3059 28.3059 28.3059 28.3059 28.3059 28.3059 28.3059 28.3059 28.3059 28.3059 28.3059 28.3059 28.3059 34.3059 479.306 130.306 77.3059 52.3059 28.3059 28.3059 28.3059 28.3059 28.3059 28.3059 28.3059 28.3059 28.3059 28.3059 28.3059 28.3059 28.3059 29.3059 36.3059 28.3059 28.3059 28.3059 28.3059 28.3059 28.3059 28.3059 28.3059 28.3059 28.3059 28.3059 28.3059 28.3059 28.3059 28.3059 28.3059 28.3059 28.3059 28.3059 34.3059 36.3059 56.3059 28.3059 28.3059 28.3059 28.3059 28.3059 28.3059 28.3059 28.3059 28.3059 28.3059 28.3059 28.3059 28.3059 28.3059 28.3059 79.3059 328.306 80.3059 28.3059 52.3059 28.3059 112.306 28.3059 43.3059 28.3059 28.3059 28.3059 28.3059 120.306 28.3059 28.3059 28.3059 79.3059 35.3059 28.3059 28.3059 28.3059 28.3059 28.3059 28.3059 28.3059 28.3059 28.3059 28.3059 28.3059 28.3059 28.3059 28.3059 28.3059 28.3059 28.3059 28.3059 28.3059 28.3059 28.3059 73.3059 36.3059 29.3059 132.306 28.3059 38.3059 28.3059 29.3059 28.3059 28.3059 28.3059 28.3059 28.3059 28.3059 28.3059 28.3059 28.3059 28.3059 28.3059 28.3059 28.3059 28.3059 28.3059 54.3059 28.3059 28.3059 28.3059 28.3059 28.3059 28.3059 28.3059 28.3059 28.3059 28.3059 28.3059 28.3059 28.3059 28.3059 28.3059 28.3059 28.3059 28.3059 28.3059 187.306 36.3059 53.3059 28.3059 28.3059 28.3059 28.3059 46.3059 28.3059 28.3059 28.3059 28.3059 28.3059 28.3059 28.3059 28.3059 28.3059 28.3059 28.3059 28.3059 28.3059 193.306 28.3059 28.3059 28.3059 28.3059 28.3059 28.3059 28.3059 28.3059 28.3059 28.3059 31.3059 28.3059 28.3059 28.3059 28.3059 28.3059 28.3059 28.3059 28.3059 40.3059 28.3059 72.3059 28.3059 28.3059 28.3059 28.3059 28.3059 28.3059 28.3059 28.3059 28.3059 28.3059 28.3059 28.3059 28.3059 28.3059 28.3059 28.3059 28.3059 28.3059 28.3059 28.3059 28.3059 28.3059 28.3059 28.3059 28.3059 28.3059 28.3059 28.3059 28.3059 28.3059 28.3059 28.3059 28.3059 28.3059 28.3059 28.3059 28.3059 28.3059 65.3059 28.3059 28.3059 28.3059 28.3059 28.3059 28.3059 28.3059 28.3059 28.3059 28.3059 28.3059 28.3059 28.3059 28.3059 35.3059 28.3059 28.3059 28.3059 28.3059 29.3059 32.3059 28.3059 220.306 28.3059 28.3059 28.3059 28.3059 28.3059 28.3059 28.3059 28.3059 28.3059 28.3059 28.3059 28.3059 28.3059 28.3059 28.3059 28.3059 28.3059 33.3059 28.3059 28.3059 28.3059 28.3059 28.3059 28.3059 28.3059 28.3059 28.3059 28.3059 28.3059 28.3059 363.306 28.3059 28.3059 28.3059 28.3059 33.3059 28.3059 28.3059 28.3059 28.3059 28.3059 28.3059 28.3059 28.3059 28.3059 255.306 28.3059 28.3059 32.3059 28.3059 28.3059 28.3059 28.3059 28.3059 28.3059 28.3059 29.3059 28.3059 28.3059 28.3059 28.3059 28.3059 28.3059 28.3059 28.3059 28.3059 28.3059 28.3059 28.3059 28.3059 28.3059 28.3059 28.3059 28.3059 28.3059 28.3059 28.3059 28.3059 28.3059 28.3059 28.3059 28.3059 28.3059 28.3059 28.3059 28.3059 28.3059 28.3059 28.3059 28.3059 28.3059 28.3059 28.3059 28.3059 28.3059 28.3059 53.3059 129.306 28.3059 28.3059 28.3059 28.3059 28.3059 28.3059 28.3059 28.3059 28.3059 28.3059 28.3059 28.3059 28.3059 28.3059 28.3059 28.3059 28.3059 28.3059 28.3059 28.3059 28.3059 28.3059 28.3059 28.3059 28.3059 28.3059 28.3059 28.3059 28.3059 28.3059 58.3059 28.3059 28.3059 28.3059 28.3059 28.3059 28.3059 28.3059 28.3059 51.3059 28.3059 28.3059 28.3059 28.3059 28.3059 28.3059 28.3059 28.3059 28.3059 28.3059 28.3059 28.3059 28.3059 28.3059 28.3059 28.3059 28.3059 28.3059 28.3059 28.3059 34.3059 28.3059 28.3059 28.3059 28.3059 28.3059 28.3059 28.3059 28.3059 28.3059 28.3059 28.3059 28.3059 40.3059 28.3059 28.3059 28.3059 28.3059 184.306 28.3059 28.3059 64.3059 28.3059 28.3059 28.3059 28.3059 44.3059 28.3059 28.3059 28.3059 28.3059 28.3059 28.3059 28.3059 28.3059 28.3059 28.3059 28.3059 30.3059 28.3059 28.3059 28.3059 28.3059 28.3059 28.3059 28.3059 28.3059 28.3059 33.3059 28.3059 28.3059 28.3059 28.3059 28.3059 28.3059 28.3059 28.3059 28.3059 28.3059 28.3059 28.3059 28.3059 28.3059 166.306 28.3059 28.3059 28.3059 28.3059 28.3059 28.3059 28.3059 28.3059 28.3059 28.3059 28.3059 28.3059 28.3059 28.3059 28.3059 28.3059 28.3059 28.3059 28.3059 158.306 67.3059 29.3059 28.3059 28.3059 28.3059 28.3059 28.3059 28.3059 28.3059 54.3059 28.3059 28.3059 28.3059 28.3059 28.3059 28.3059 28.3059 45.3059 36.3059 38.3059 28.3059 28.3059 28.3059 28.3059 28.3059 28.3059 28.3059 28.3059 28.3059 28.3059 28.3059 28.3059 28.3059 28.3059 28.3059 28.3059 28.3059 28.3059 28.3059 28.3059 197.306 28.3059 28.3059 28.3059 28.3059 28.3059 28.3059 28.3059 28.3059 28.3059 28.3059 28.3059 28.3059 28.3059 28.3059 28.3059 28.3059 28.3059 28.3059 28.3059 36.3059 28.3059 28.3059 28.3059 28.3059 28.3059 28.3059 28.3059 151.306 28.3059 28.3059 28.3059 28.3059 28.3059 28.3059 28.3059 28.3059 28.3059 28.3059 28.3059 100.306 28.3059 28.3059 28.3059 28.3059 28.3059 28.3059 28.3059 28.3059 28.3059 28.3059 28.3059 28.3059 28.3059 28.3059 28.3059 28.3059 28.3059 28.3059 28.3059 38.3059 28.3059 28.3059 28.3059 28.3059 28.3059 28.3059 28.3059 28.3059 28.3059 28.3059 28.3059 28.3059 28.3059 28.3059 28.3059 28.3059 28.3059 28.3059 28.3059 28.3059 28.3059 28.3059 28.3059 28.3059 28.3059 28.3059 28.3059 28.3059 28.3059 28.3059 28.3059 28.3059 28.3059 28.3059 28.3059 28.3059 28.3059 28.3059 28.3059 28.3059 55.3059 28.3059 28.3059 62.3059 28.3059 28.3059 28.3059 28.3059 28.3059 28.3059 28.3059 28.3059 28.3059 28.3059 28.3059 28.3059 28.3059 28.3059 40.3059 28.3059 52.3059 28.3059 28.3059 28.3059 28.3059 28.3059 28.3059 28.3059 28.3059 28.3059 28.3059 28.3059 28.3059 28.3059 28.3059 28.3059 28.3059 28.3059 28.3059 28.3059 28.3059 28.3059 28.3059 28.3059 28.3059 28.3059 28.3059 28.3059 28.3059 28.3059 28.3059 28.3059 28.3059 28.3059 28.3059 28.3059 28.3059 28.3059 28.3059 28.3059 28.3059 102.306 28.3059 28.3059 28.3059 28.3059 28.3059 28.3059 28.3059 28.3059 28.3059 28.3059 28.3059 28.3059 28.3059 28.3059 28.3059 34.3059 64.3059 28.3059 28.3059 38.3059 36.3059 28.3059 37.3059 28.3059 28.3059 28.3059 28.3059 28.3059 28.3059 28.3059 28.3059 28.3059 28.3059 28.3059 28.3059 28.3059 28.3059 28.3059 28.3059 28.3059 28.3059 28.3059 28.3059 28.3059 28.3059 28.3059 28.3059 28.3059 28.3059 28.3059 28.3059 28.3059 28.3059 28.3059 168.306 28.3059 28.3059 28.3059 28.3059 28.3059 37.3059 28.3059 28.3059 28.3059 28.3059 28.3059 28.3059 28.3059 28.3059 28.3059 28.3059 28.3059 28.3059 28.3059 28.3059 28.3059 28.3059 28.3059 28.3059 28.3059 28.3059 28.3059 28.3059 28.3059 28.3059 28.3059 28.3059 38.3059 28.3059 28.3059 28.3059 28.3059 28.3059 28.3059 29.3059 28.3059 28.3059 28.3059 28.3059 69.3059 30.3059 32.3059 28.3059 32.3059 28.3059 28.3059 28.3059 28.3059 28.3059 28.3059 28.3059 28.3059 28.3059 28.3059 28.3059 28.3059 
rewards of Offsets elements: 0 0 172 483 0 0 0 0 0 4 0 0 0 0 2034 135 0 0 0 0 0 0 0 0 0 1869 900 814 805 0 264 142 0 0 0 0 0 0 0 0 84 0 0 0 0 0 0 120 72 615 183 0 0 0 0 402 100 0 0 0 382 137 0 0 0 0 0 0 0 0 0 205 0 0 0 0 0 0 56 0 0 0 0 0 1 0 0 26 0 92 0 28 0 0 0 0 0 0 0 331 358 0 0 0 0 0 0 459 0 0 1 276 236 1179 0 1131 8 0 0 0 0 0 0 0 0 0 0 0 0 0 0 0 2 0 0 0 0 0 0 0 0 0 456 66 0 0 0 0 0 0 0 120 51 0 0 0 0 0 0 0 0 337 0 81 38 0 0 0 0 0 0 0 45 0 0 0 0 7 0 0 886 0 0 0 0 0 0 0 0 0 0 0 270 2 0 0 0 0 0 0 0 0 0 0 0 0 0 0 0 0 0 0 0 0 92 254 433 0 0 0 0 35 0 0 0 42 0 0 0 0 0 0 0 870 34 336 114 38 0 0 0 60 615 0 38 0 0 0 0 0 0 0 0 0 0 0 0 0 0 0 0 0 0 0 155 0 0 0 0 0 8 0 0 0 77 0 0 0 0 129 441 99 43 0 0 0 0 0 0 0 0 0 0 0 0 0 0 0 0 0 0 0 0 0 0 25 0 0 0 0 0 0 0 282 108 812 8 72 540 0 0 0 0 0 0 0 0 0 0 0 0 0 0 0 0 360 0 0 0 0 0 0 0 0 0 0 0 0 0 0 0 0 0 0 55 540 0 14 0 0 0 0 0 2 0 0 0 0 0 0 0 0 0 0 0 0 0 0 0 0 0 0 0 0 0 0 0 0 0 0 0 0 0 0 0 175 45 0 47 140 396 264 175 110 1 0 0 0 0 0 0 0 0 0 0 0 0 0 0 0 0 0 0 0 0 0 328 0 0 0 0 0 0 0 51 61 716 0 22 0 0 0 0 0 0 0 0 0 0 0 0 0 0 0 0 0 0 0 0 0 0 0 0 0 0 0 0 0 0 0 0 0 0 0 0 0 320 210 96 0 0 0 0 0 0 0 0 0 0 0 0 0 0 0 0 6 0 0 0 0 0 541 0 0 0 0 0 0 635 0 0 0 0 0 0 5 0 84 51 0 68 38 54 0 0 0 0 0 0 0 0 0 0 0 0 0 10 0 0 0 0 0 0 0 12 0 0 0 0 0 0 0 37 0 0 0 0 0 26 0 419 0 0 0 0 0 32 13 0 0 0 0 0 0 0 0 0 0 0 0 0 7 5 0 0 0 0 0 0 0 0 0 0 0 0 0 1 0 30 3 0 0 0 0 0 58 0 0 0 0 0 0 0 0 0 0 0 136 0 0 0 0 0 0 0 0 0 0 0 0 0 0 0 0 0 0 0 0 0 13 0 0 0 0 4 0 0 124 84 0 384 0 0 0 0 0 0 0 0 0 0 0 0 0 0 41 0 0 0 0 0 0 0 0 0 0 0 0 0 0 76 0 6 0 0 0 0 6 1 1 9 0 61 0 0 0 0 0 0 0 0 0 0 0 0 0 0 1 0 0 0 0 0 0 0 0 0 43 0 94 16 0 1 0 0 0 4 0 0 0 0 0 0 0 0 0 0 0 0 0 0 0 0 0 0 0 1 0 0 0 0 0 0 0 0 0 0 0 0 21 0 52 0 212 58 0 78 0 13 0 0 0 0 0 1 0 0 0 0 0 0 98 0 0 0 0 0 0 0 0 0 0 0 0 400 0 0 0 0 0 0 43 37 0 0 0 0 0 0 0 0 0 0 0 0 0 0 0 0 0 0 176 0 0 0 0 0 0 0 0 0 0 0 0 0 0 0 0 0 0 0 0 346 0 0 0 0 0 90 0 223 0 0 0 0 0 0 0 0 0 0 0 0 0 0 0 0 0 0 0 0 0 0 0 0 0 0 0 0 24 0 0 2 0 0 0 0 0 0 0 0 8 0 0 24 0 0 0 0 0 0 0 0 0 0 0 0 0 0 0 0 0 0 0 0 0 0 0 0 0 0 0 0 27 0 0 0 0 0 98 0 0 0 0 0 0 0 0 0 0 0 0 0 0 0 0 0 0 0 0 0 0 0 0 0 0 0 0 0 0 0 0 186 0 6 0 0 0 0 4 0 50 0 0 0 0 0 0 0 0 0 0 0 0 0 0 0 4 0 0 0 0 0 0 0 0 0 0 0 0 0 0 0 0 70 0 0 160 3 0 0 0 0 0 0 0 0 0 0 25 0 0 0 0 0 0 0 0 0 0 0 0 0 0 0 0 0 0 0 0 0 0 0 18 0 37 1792 0 0 0 0 4 10 0 0 0 0 0 0 0 0 0 0 0 0 0 0 0 0 0 0 0 0 0 0 0 0 0 0 0 0 0 0 0 0 0 0 0 0 0 215 38 3 0 0 0 0 0 0 0 0 0 0 0 0 0 3 0 0 0 0 0 0 0 0 0 0 0 0 0 2 0 0 0 0 0 44 0 0 0 492 0 0 0 0 0 0 0 0 0 0 0 0 0 0 0 48 0 0 0 0 0 0 0 0 0 0 0 0 0 0 0 0 44 0 0 0 52 0 88 16 4 0 4 0 0 0 0 0 0 0 0 0 0 0 0 0 3 0 0 0 0 0 0 0 0 0 0 0 0 0 7 0 0 0 0 0 3 3 0 35 0 0 125 240 0 0 0 0 0 0 0 0 0 0 0 0 0 0 6 451 102 49 24 0 0 0 0 0 0 0 0 0 0 0 0 0 1 8 0 0 0 0 0 0 0 0 0 0 0 0 0 0 0 0 0 0 0 6 8 28 0 0 0 0 0 0 0 0 0 0 0 0 0 0 0 51 300 52 0 24 0 84 0 15 0 0 0 0 92 0 0 0 51 7 0 0 0 0 0 0 0 0 0 0 0 0 0 0 0 0 0 0 0 0 0 45 8 1 104 0 10 0 1 0 0 0 0 0 0 0 0 0 0 0 0 0 0 0 26 0 0 0 0 0 0 0 0 0 0 0 0 0 0 0 0 0 0 0 159 8 25 0 0 0 0 18 0 0 0 0 0 0 0 0 0 0 0 0 0 165 0 0 0 0 0 0 0 0 0 0 3 0 0 0 0 0 0 0 0 12 0 44 0 0 0 0 0 0 0 0 0 0 0 0 0 0 0 0 0 0 0 0 0 0 0 0 0 0 0 0 0 0 0 0 0 0 0 0 0 0 37 0 0 0 0 0 0 0 0 0 0 0 0 0 0 7 0 0 0 0 1 4 0 192 0 0 0 0 0 0 0 0 0 0 0 0 0 0 0 0 0 5 0 0 0 0 0 0 0 0 0 0 0 0 335 0 0 0 0 5 0 0 0 0 0 0 0 0 0 227 0 0 4 0 0 0 0 0 0 0 1 0 0 0 0 0 0 0 0 0 0 0 0 0 0 0 0 0 0 0 0 0 0 0 0 0 0 0 0 0 0 0 0 0 0 0 0 0 0 0 25 101 0 0 0 0 0 0 0 0 0 0 0 0 0 0 0 0 0 0 0 0 0 0 0 0 0 0 0 0 0 0 30 0 0 0 0 0 0 0 0 23 0 0 0 0 0 0 0 0 0 0 0 0 0 0 0 0 0 0 0 0 6 0 0 0 0 0 0 0 0 0 0 0 0 12 0 0 0 0 156 0 0 36 0 0 0 0 16 0 0 0 0 0 0 0 0 0 0 0 2 0 0 0 0 0 0 0 0 0 5 0 0 0 0 0 0 0 0 0 0 0 0 0 0 138 0 0 0 0 0 0 0 0 0 0 0 0 0 0 0 0 0 0 0 130 39 1 0 0 0 0 0 0 0 26 0 0 0 0 0 0 0 17 8 10 0 0 0 0 0 0 0 0 0 0 0 0 0 0 0 0 0 0 0 0 169 0 0 0 0 0 0 0 0 0 0 0 0 0 0 0 0 0 0 0 8 0 0 0 0 0 0 0 123 0 0 0 0 0 0 0 0 0 0 0 72 0 0 0 0 0 0 0 0 0 0 0 0 0 0 0 0 0 0 0 10 0 0 0 0 0 0 0 0 0 0 0 0 0 0 0 0 0 0 0 0 0 0 0 0 0 0 0 0 0 0 0 0 0 0 0 0 0 0 0 0 27 0 0 34 0 0 0 0 0 0 0 0 0 0 0 0 0 0 12 0 24 0 0 0 0 0 0 0 0 0 0 0 0 0 0 0 0 0 0 0 0 0 0 0 0 0 0 0 0 0 0 0 0 0 0 0 0 0 0 0 0 74 0 0 0 0 0 0 0 0 0 0 0 0 0 0 0 6 36 0 0 10 8 0 9 0 0 0 0 0 0 0 0 0 0 0 0 0 0 0 0 0 0 0 0 0 0 0 0 0 0 0 0 0 0 0 140 0 0 0 0 0 9 0 0 0 0 0 0 0 0 0 0 0 0 0 0 0 0 0 0 0 0 0 0 0 0 0 0 10 0 0 0 0 0 0 1 0 0 0 0 41 2 4 0 4 0 0 0 0 0 0 0 0 0 0 0 0 Printing Sanity3
offset_index value2036
offset list size2036
reward size2036
potential size2036
-----------------------------------------------------------------------------------------------------------------------------------------------------------------------------------------------------

DRAM Statistics
 CHANNEL 0
 RQ ROW_BUFFER_HIT:         32  ROW_BUFFER_MISS:        855
 DBUS_CONGESTED:          0
 WQ ROW_BUFFER_HIT:          0  ROW_BUFFER_MISS:          0  FULL:          0

 AVG_CONGESTED_CYCLE: -
 All warmup complete: 2
Channel 0 Bank busy for read cycles: 0
Channel 0 Bank busy for write cycles: 0
Channel 0
Rank 0
0banks busy for read cycles: 665952629
0banks busy for write cycles: 0
1banks busy for read cycles: 121284
1banks busy for write cycles: 0
2banks busy for read cycles: 4283
2banks busy for write cycles: 0
3banks busy for read cycles: 0
3banks busy for write cycles: 0
4banks busy for read cycles: 0
4banks busy for write cycles: 0
5banks busy for read cycles: 0
5banks busy for write cycles: 0
6banks busy for read cycles: 0
6banks busy for write cycles: 0
7banks busy for read cycles: 0
7banks busy for write cycles: 0
8banks busy for read cycles: 0
8banks busy for write cycles: 0

CPU 0 Branch Prediction Accuracy: 99.9093% MPKI: 0.16097 Average ROB Occupancy at Mispredict: 31.3454
Branch types
NOT_BRANCH: 164496933 82.2485%
BRANCH_DIRECT_JUMP: 1953106 0.976553%
BRANCH_INDIRECT: 12762841 6.38142%
BRANCH_CONDITIONAL: 10951337 5.47567%
BRANCH_DIRECT_CALL: 4143765 2.07188%
BRANCH_INDIRECT_CALL: 774109 0.387055%
BRANCH_RETURN: 4917864 2.45893%
BRANCH_OTHER: 0 0%

DRAM PAGES: 1048576
Allocated PAGES: 1251
