
*** ChampSim Multicore Out-of-Order Simulator ***

Warmup Instructions: 50000000
Simulation Instructions: 200000000
Number of CPUs: 1
LLC sets: 2048
LLC ways: 16
Off-chip DRAM Size: 4096 MB Channels: 1 Width: 64-bit Data Rate: 6400 MT/s
CPU 0 runs traces/spec2k17/srv_56.champsimtrace.xz
.xz
BTB has LRU replacement policy
ITLB has LRU replacement policy
DTLB has LRU replacement policy
STLB has LRU replacement policy
L1I has LRU replacement policy
L1D has LRU replacement policy
Initialize SRRIP state for L2C
Initialize DRRIP state for LLC
Heartbeat CPU 0 instructions: 10000002 cycles: 2774113 heartbeat IPC: 3.60476 cumulative IPC: 3.60476 (Simulation time: 0 hr 0 min 40 sec) 
Heartbeat CPU 0 instructions: 20000003 cycles: 5603095 heartbeat IPC: 3.53484 cumulative IPC: 3.56946 (Simulation time: 0 hr 1 min 21 sec) 
Heartbeat CPU 0 instructions: 30000000 cycles: 8380809 heartbeat IPC: 3.60008 cumulative IPC: 3.57961 (Simulation time: 0 hr 2 min 2 sec) 
*** Reached end of trace for Core: 0 Repeating trace: traces/spec2k17/srv_56.champsimtrace.xz
Heartbeat CPU 0 instructions: 40000001 cycles: 11165677 heartbeat IPC: 3.59083 cumulative IPC: 3.58241 (Simulation time: 0 hr 2 min 43 sec) 
Heartbeat CPU 0 instructions: 50000002 cycles: 13993587 heartbeat IPC: 3.53618 cumulative IPC: 3.57307 (Simulation time: 0 hr 3 min 26 sec) 

Warmup complete CPU 0 instructions: 50000002 cycles: 13993587 (Simulation time: 0 hr 3 min 26 sec) 

Offsets elements: 
Potential of Offsets elements: 
rewards of Offsets elements: 
Printing Sanity1
offset list size1371
Offsets elements: 
Potential of Offsets elements: 
rewards of Offsets elements: 2036 434 120 352 896 268 0 39 198 49 802 520 148 0 0 384 0 0 108 629 143 40 726 42 0 0 1440 19 244 196 35 480 408 4598 690 0 828 69 0 0 360 42 100 506 180 0 0 45 0 0 0 0 0 0 42 0 0 0 0 546 0 72 22 26 0 0 624 0 0 1285 0 273 0 0 0 316 0 0 0 0 0 259 22 0 0 0 0 0 0 0 0 0 0 0 0 0 0 0 0 0 0 0 0 1076 0 0 0 703 0 256 0 309 774 0 84 39 44 10 9 31 76 16 9 39 0 6 1 41 0 2 2 2 4 0 2 3 2 0 0 1 0 0 3 0 153 0 15 24 0 0 12 19 4 0 2 0 0 0 24 1 0 0 10 0 0 5 0 0 0 0 1 0 0 0 0 0 0 0 0 1 0 3 0 0 0 12 7 108 19 0 0 0 0 0 0 0 31 0 223 20 1 0 0 0 107 0 0 0 251 0 0 0 0 0 0 100 305 216 89 167 0 0 107 0 0 21 168 14 7 74 5 0 0 2 0 104 0 1 0 0 2 4 0 0 39 0 14 0 7 0 5 0 28 4 4 9 0 0 0 44 1 28 14 76 98 5 68 0 0 27 47 156 0 10 0 2 10 15 0 0 87 0 0 0 2 0 0 3 0 0 558 0 0 0 0 0 0 0 0 0 0 60 4 2 0 0 0 2 0 0 0 0 0 0 2 3 0 0 0 0 0 30 8 0 0 0 164 0 11 62 0 0 0 0 0 0 0 0 290 0 0 0 0 0 0 0 0 0 0 0 0 0 0 0 60 0 0 0 0 0 0 0 0 0 0 0 0 0 0 0 0 0 0 907 0 0 0 0 24 0 0 0 0 0 0 0 0 0 0 0 7 0 0 0 0 0 0 0 0 0 0 0 0 0 0 0 0 0 0 0 0 0 0 0 0 0 0 0 0 0 0 0 0 0 0 2 5 0 0 0 0 0 0 0 0 0 0 0 0 0 0 0 0 0 0 0 0 0 0 0 0 0 0 80 0 0 28 0 0 0 0 0 0 2 3 0 0 0 10 0 0 0 0 12 0 0 0 0 6 0 4 0 0 0 0 4 0 9 0 0 0 0 14 0 23 147 45 49 1 18 7 48 0 0 0 4 12 0 0 19 35 0 26 1 0 0 0 0 0 234 0 0 0 0 29 0 156 0 2 43 0 22 90 200 8 26 64 126 45 17 31 101 149 178 0 4 33 41 2 7 0 24 48 12 21 99 34 46 9 0 0 0 44 172 17 20 34 82 16 53 76 17 22 244 18 56 253 25 104 26 177 132 8 251 69 82 9 253 100 0 283 9 85 0 279 53 2 276 230 73 202 389 321 5 32 43 0 0 0 481 20 0 352 42 24 0 31 0 80 5 0 4 0 15 0 0 48 0 0 0 3 0 0 2 2 0 0 0 0 0 0 0 0 0 0 0 0 16 10 0 0 18 0 15 0 0 2 0 4 8 0 0 0 0 0 0 0 8 44 0 8 0 333 0 31 0 0 0 0 0 6 0 0 0 0 0 525 285 0 0 0 0 0 0 0 0 0 0 0 0 0 0 0 0 0 0 0 0 0 0 0 0 0 0 0 0 0 0 0 0 0 0 40 0 0 0 0 0 0 0 0 0 0 0 0 0 0 0 0 0 0 0 0 0 0 0 0 0 0 0 0 0 0 0 0 0 0 0 0 0 0 0 0 0 0 0 0 0 0 0 0 0 0 0 0 0 0 0 0 0 0 0 0 0 0 0 0 0 3 34 18 81 45 0 0 9 27 0 0 0 0 0 0 0 816 0 76 6 9 196 0 339 86 2 0 0 0 183 232 77 100 6 103 0 5 0 28 216 96 0 0 0 0 0 506 1 0 0 2 0 0 18 14 0 0 0 0 0 156 51 0 0 0 0 0 85 4 0 0 0 0 0 0 6 0 218 120 34 0 0 38 0 0 0 0 0 0 252 178 32 0 468 154 625 3 0 0 232 0 0 558 2 0 199 39 0 0 0 0 0 0 0 0 0 0 50 0 0 8 0 0 4 0 8 0 221 0 4 94 0 0 14 0 0 0 0 0 0 0 0 0 0 0 0 11 0 0 0 0 0 0 0 0 0 0 0 0 0 0 0 0 2 0 0 0 21 0 0 0 0 18 0 0 0 0 0 0 0 0 0 0 0 0 0 19 0 0 0 10 0 0 0 0 0 0 0 0 0 0 0 0 0 0 0 0 0 6 0 0 0 0 0 0 0 0 0 0 0 0 572 0 0 0 0 0 190 0 0 0 0 0 112 89 0 0 0 0 0 0 0 0 0 0 0 0 0 0 0 0 0 0 0 0 0 0 0 0 20 5 0 0 309 0 220 6 66 0 0 66 0 45 0 48 0 0 0 0 0 0 16 0 0 25 0 0 0 1 0 0 0 11 0 0 3 5 7 0 5 3 0 0 3 0 0 37 0 0 0 18 0 2 8 0 3 0 12 0 0 35 0 12 0 2 0 7 12 8 30 0 0 0 0 0 0 0 0 0 0 0 0 0 69 0 0 0 0 2 63 0 0 9 0 0 0 0 0 0 0 0 0 0 110 0 0 0 0 0 0 2 25 35 0 3 12 0 0 4 43 7 10 20 0 32 12 0 6 93 6 70 7 42 35 9 3 0 3 0 38 0 0 0 0 50 0 0 0 0 7 23 28 28 152 38 17 161 130 72 8 83 260 207 1 54 86 27 15 0 20 59 33 10 12 37 69 98 27 37 38 3 34 65 24 61 92 29 349 56 0 0 26 40 0 127 0 0 0 0 0 0 0 0 0 0 0 0 0 0 0 0 0 0 0 3 0 0 0 0 0 340 0 0 0 0 0 0 0 0 0 0 0 0 0 0 0 0 0 0 0 0 0 0 0 0 0 0 0 0 0 0 0 0 0 0 1 6 5 2 0 3 0 13 0 15 0 0 0 0 302 0 0 0 20 0 0 61 110 0 0 0 0 0 14 0 0 1 2 3 13 5 0 0 0 0 0 0 0 0 0 0 0 0 0 5 182 4 0 7 0 2 172 8 31 126 33 90 122 41 0 40 6 4 
Printing Sanity2
Heartbeat CPU 0 instructions: 60000000 cycles: 30789396 heartbeat IPC: 0.595387 cumulative IPC: 0.595387 (Simulation time: 0 hr 4 min 22 sec) 
*** Reached end of trace for Core: 0 Repeating trace: traces/spec2k17/srv_56.champsimtrace.xz
Heartbeat CPU 0 instructions: 70000003 cycles: 47808363 heartbeat IPC: 0.58758 cumulative IPC: 0.591457 (Simulation time: 0 hr 5 min 20 sec) 
Heartbeat CPU 0 instructions: 80000002 cycles: 63723188 heartbeat IPC: 0.628345 cumulative IPC: 0.603262 (Simulation time: 0 hr 6 min 16 sec) 
Heartbeat CPU 0 instructions: 90000000 cycles: 80581686 heartbeat IPC: 0.593173 cumulative IPC: 0.600708 (Simulation time: 0 hr 7 min 13 sec) 
*** Reached end of trace for Core: 0 Repeating trace: traces/spec2k17/srv_56.champsimtrace.xz
Heartbeat CPU 0 instructions: 100000000 cycles: 97471238 heartbeat IPC: 0.592082 cumulative IPC: 0.598963 (Simulation time: 0 hr 8 min 11 sec) 
Heartbeat CPU 0 instructions: 110000000 cycles: 113138983 heartbeat IPC: 0.638254 cumulative IPC: 0.605172 (Simulation time: 0 hr 9 min 10 sec) 
Heartbeat CPU 0 instructions: 120000003 cycles: 130280957 heartbeat IPC: 0.583364 cumulative IPC: 0.601957 (Simulation time: 0 hr 10 min 8 sec) 
*** Reached end of trace for Core: 0 Repeating trace: traces/spec2k17/srv_56.champsimtrace.xz
Heartbeat CPU 0 instructions: 130000002 cycles: 147095559 heartbeat IPC: 0.594721 cumulative IPC: 0.601043 (Simulation time: 0 hr 11 min 6 sec) 
Heartbeat CPU 0 instructions: 140000001 cycles: 163011605 heartbeat IPC: 0.628297 cumulative IPC: 0.603954 (Simulation time: 0 hr 12 min 4 sec) 
Heartbeat CPU 0 instructions: 150000002 cycles: 179903179 heartbeat IPC: 0.592011 cumulative IPC: 0.602738 (Simulation time: 0 hr 13 min 0 sec) 
*** Reached end of trace for Core: 0 Repeating trace: traces/spec2k17/srv_56.champsimtrace.xz
Heartbeat CPU 0 instructions: 160000002 cycles: 196646805 heartbeat IPC: 0.597242 cumulative IPC: 0.602234 (Simulation time: 0 hr 13 min 58 sec) 
Heartbeat CPU 0 instructions: 170000000 cycles: 212847002 heartbeat IPC: 0.617276 cumulative IPC: 0.60346 (Simulation time: 0 hr 14 min 57 sec) 
Heartbeat CPU 0 instructions: 180000001 cycles: 229403162 heartbeat IPC: 0.604005 cumulative IPC: 0.603501 (Simulation time: 0 hr 15 min 52 sec) 
*** Reached end of trace for Core: 0 Repeating trace: traces/spec2k17/srv_56.champsimtrace.xz
Heartbeat CPU 0 instructions: 190000002 cycles: 246230975 heartbeat IPC: 0.594254 cumulative IPC: 0.602831 (Simulation time: 0 hr 16 min 51 sec) 
Heartbeat CPU 0 instructions: 200000001 cycles: 262684135 heartbeat IPC: 0.607786 cumulative IPC: 0.603159 (Simulation time: 0 hr 17 min 49 sec) 
Heartbeat CPU 0 instructions: 210000000 cycles: 278963918 heartbeat IPC: 0.614259 cumulative IPC: 0.603841 (Simulation time: 0 hr 18 min 48 sec) 
*** Reached end of trace for Core: 0 Repeating trace: traces/spec2k17/srv_56.champsimtrace.xz
Heartbeat CPU 0 instructions: 220000000 cycles: 295710662 heartbeat IPC: 0.597131 cumulative IPC: 0.603442 (Simulation time: 0 hr 19 min 44 sec) 
Heartbeat CPU 0 instructions: 230000000 cycles: 312507581 heartbeat IPC: 0.595347 cumulative IPC: 0.602987 (Simulation time: 0 hr 20 min 41 sec) 
Heartbeat CPU 0 instructions: 240000001 cycles: 328506195 heartbeat IPC: 0.625054 cumulative IPC: 0.604109 (Simulation time: 0 hr 21 min 39 sec) 
*** Reached end of trace for Core: 0 Repeating trace: traces/spec2k17/srv_56.champsimtrace.xz
Heartbeat CPU 0 instructions: 250000002 cycles: 345200662 heartbeat IPC: 0.599001 cumulative IPC: 0.603852 (Simulation time: 0 hr 22 min 36 sec) 
Finished CPU 0 instructions: 200000000 cycles: 331207075 cumulative IPC: 0.603852 (Simulation time: 0 hr 22 min 36 sec) 

ChampSim completed all CPUs

Region of Interest Statistics

CPU 0 cumulative IPC: 0.603852 instructions: 200000000 cycles: 331207075
ITLB TOTAL     ACCESS:   34931860  HIT:   34114318  MISS:     817542  HIT %:    97.6596  MISS %:    2.34039   MPKI: 4.08771
ITLB LOAD TRANSLATION ACCESS:   34931860  HIT:   34114318  MISS:     817542  HIT %:    97.6596  MISS %:    2.34039   MPKI: 4.08771
ITLB PREFETCH  REQUESTED:          0  ISSUED:          0  USEFUL:          0  USELESS:          0
ITLB USEFUL LOAD PREFETCHES:          0 PREFETCH ISSUED TO LOWER LEVEL:          0  ACCURACY: -nan
ITLB TIMELY PREFETCHES:          0 LATE PREFETCHES: 0 DROPPED PREFETCHES: 0
ITLB PREFETCHES SAME FILL-ORIGIN LEVEL: 0 DIFFERENT FILL-ORIGIN LEVEL: 0
ITLB AVERAGE MISS LATENCY: 9.30305 cycles
ITLB RQ	ACCESS:   39786215	FORWARD:          0	MERGED:    4573106	TO_CACHE:   35213109

DTLB TOTAL     ACCESS:   40091707  HIT:   39191859  MISS:     899848  HIT %:    97.7555  MISS %:    2.24447   MPKI: 4.49924
DTLB LOAD TRANSLATION ACCESS:   40091707  HIT:   39191859  MISS:     899848  HIT %:    97.7555  MISS %:    2.24447   MPKI: 4.49924
DTLB PREFETCH  REQUESTED:          0  ISSUED:          0  USEFUL:          0  USELESS:          0
DTLB USEFUL LOAD PREFETCHES:          0 PREFETCH ISSUED TO LOWER LEVEL:          0  ACCURACY: -nan
DTLB TIMELY PREFETCHES:          0 LATE PREFETCHES: 0 DROPPED PREFETCHES: 0
DTLB PREFETCHES SAME FILL-ORIGIN LEVEL: 0 DIFFERENT FILL-ORIGIN LEVEL: 0
DTLB AVERAGE MISS LATENCY: 13.6898 cycles
DTLB RQ	ACCESS:   54926830	FORWARD:          0	MERGED:   14785218	TO_CACHE:   40141612

STLB TOTAL     ACCESS:    3000194  HIT:    2947091  MISS:      53103  HIT %:      98.23  MISS %:    1.76999   MPKI: 0.265515
STLB LOAD TRANSLATION ACCESS:    1717390  HIT:    1664288  MISS:      53102  HIT %:     96.908  MISS %:    3.09202   MPKI: 0.26551
STLB TRANSLATION FROM L1D PREFETCHER ACCESS:    1282804  HIT:    1282803  MISS:          1  HIT %:    99.9999  MISS %: 7.79542e-05   MPKI: 5e-06
STLB PREFETCH  REQUESTED:          0  ISSUED:          0  USEFUL:          1  USELESS:          0
STLB USEFUL LOAD PREFETCHES:          1 PREFETCH ISSUED TO LOWER LEVEL:          0  ACCURACY: inf
STLB TIMELY PREFETCHES:          1 LATE PREFETCHES: 0 DROPPED PREFETCHES: 74260
STLB PREFETCHES SAME FILL-ORIGIN LEVEL: 0 DIFFERENT FILL-ORIGIN LEVEL: 0
STLB AVERAGE MISS LATENCY: 84.0275 cycles
STLB RQ	ACCESS:    3496200	FORWARD:          0	MERGED:     421746	TO_CACHE:    3074454

STLB Hit, L1D data hit: 0
STLB Hit, L2C data hit: 0
STLB Hit, LLC data hit: 0
STLB Hit, LLC data miss: 0
STLB STLB hints to L2: 0
L1D TOTAL     ACCESS:   56083956  HIT:   54776227  MISS:    1307729  HIT %:    97.6683  MISS %:    2.33173   MPKI: 6.53864
L1D LOAD      ACCESS:   33239894  HIT:   32293895  MISS:     945999  HIT %:     97.154  MISS %:    2.84597   MPKI: 4.72999
L1D RFO       ACCESS:   21161376  HIT:   20811608  MISS:     349768  HIT %:    98.3471  MISS %:    1.65286   MPKI: 1.74884
L1D PREFETCH  ACCESS:    1682686  HIT:    1670724  MISS:      11962  HIT %:    99.2891  MISS %:   0.710887   MPKI: 0.05981
AGUS PREFETCH L1 MISS: 0
L1D PREFETCH  REQUESTED:    3600354  ISSUED:    3600354  USEFUL:       4376  USELESS:       7577
L1D USEFUL LOAD PREFETCHES:       4376 PREFETCH ISSUED TO LOWER LEVEL:      12112  ACCURACY: 36.1295
L1D TIMELY PREFETCHES:       4376 LATE PREFETCHES: 150 DROPPED PREFETCHES: 74260
L1D PREFETCHES SAME FILL-ORIGIN LEVEL: 12112 DIFFERENT FILL-ORIGIN LEVEL: 0
L1D AVERAGE MISS LATENCY: 9621.56 cycles
L1D RQ	ACCESS:   47518144	FORWARD:          0	MERGED:   13959738	TO_CACHE:   33285382
L1D WQ	ACCESS:   21914197	FORWARD:     273024	MERGED:     272749	TO_CACHE:   21641448
L1D PQ	ACCESS:    1821544	FORWARD:          0	MERGED:      42734	TO_CACHE:    1778810

L1D UNIQUE REGIONS ACCESSED: 0
L1D REGIONS CONFLICTS: 0
L1D Cross Page Prefetch Requests: 90618
L1D Same Page Prefetch Requests: 1730926
L1D ROI Sum of L1D PQ occupancy: 26068990
L1D PREFETCHES PUSHED FROM L2C: 0
L1I TOTAL     ACCESS:   39318726  HIT:   36678965  MISS:    2639761  HIT %:    93.2862  MISS %:    6.71375   MPKI: 13.1988
L1I LOAD      ACCESS:   39318726  HIT:   36678965  MISS:    2639761  HIT %:    93.2862  MISS %:    6.71375   MPKI: 13.1988
L1I PREFETCH  REQUESTED:          0  ISSUED:          0  USEFUL:          0  USELESS:          0
L1I USEFUL LOAD PREFETCHES:          0 PREFETCH ISSUED TO LOWER LEVEL:          0  ACCURACY: -nan
L1I TIMELY PREFETCHES:          0 LATE PREFETCHES: 0 DROPPED PREFETCHES: 0
L1I PREFETCHES SAME FILL-ORIGIN LEVEL: 0 DIFFERENT FILL-ORIGIN LEVEL: 0
L1I AVERAGE MISS LATENCY: 17.32 cycles
L1I RQ	ACCESS:   62195492	FORWARD:          0	MERGED:   22409277	TO_CACHE:   39786215

BTB TOTAL     ACCESS:   32613613  HIT:   28976968  MISS:    3636645  HIT %:    88.8493  MISS %:    11.1507   MPKI: 18.1832
BTB BRANCH_DIRECT_JUMP	ACCESS:    3424496  HIT:    3239376  MISS:     185120
BTB BRANCH_INDIRECT	ACCESS:   12879305  HIT:   11560314  MISS:    1318991
BTB BRANCH_CONDITIONAL	ACCESS:    8936157  HIT:    8698809  MISS:     237348
BTB BRANCH_DIRECT_CALL	ACCESS:    2777775  HIT:    2446309  MISS:     331466
BTB BRANCH_INDIRECT_CALL	ACCESS:     909063  HIT:     766967  MISS:     142096
BTB BRANCH_RETURN	ACCESS:    3686817  HIT:    2265193  MISS:    1421624
BTB BRANCH_OTHER ACCESS:          0  HIT:          0  MISS:          0

L2C TOTAL     ACCESS:    4764273  HIT:    4115576  MISS:     648697  HIT %:    86.3841  MISS %:    13.6159   MPKI: 3.24349
L2C LOAD      ACCESS:    3585602  HIT:    3067573  MISS:     518029  HIT %:    85.5525  MISS %:    14.4475   MPKI: 2.59015
L2C DATA LOAD MPKI: 1.20206
L2C INSTRUCTION LOAD MPKI: 1.38808
L2C RFO       ACCESS:     349768  HIT:     270815  MISS:      78953  HIT %:     77.427  MISS %:     22.573   MPKI: 0.394765
L2C PREFETCH  ACCESS:      12112  HIT:      10661  MISS:       1451  HIT %:    88.0201  MISS %:    11.9799   MPKI: 0.007255
AGUS PREFETCH L1 MISS: 0
L2C DATA PREFETCH MPKI: 0.007255
L2C INSTRUCTION PREFETCH MPKI: 0
L2C WRITEBACK ACCESS:     571507  HIT:     558335  MISS:      13172  HIT %:    97.6952  MISS %:    2.30478   MPKI: 0.06586
L2C LOAD TRANSLATION ACCESS:      98152  HIT:      61130  MISS:      37022  HIT %:     62.281  MISS %:     37.719   MPKI: 0.18511
L2C TRANSLATION FROM L1D PREFETCHER ACCESS:     147132  HIT:     147062  MISS:         70  HIT %:    99.9524  MISS %:  0.0475763   MPKI: 0.00035
L2C PREFETCH  REQUESTED:          0  ISSUED:          0  USEFUL:        140  USELESS:       1356
L2C USEFUL LOAD PREFETCHES:        140 PREFETCH ISSUED TO LOWER LEVEL:       1451  ACCURACY: 9.64852
L2C TIMELY PREFETCHES:        140 LATE PREFETCHES: 0 DROPPED PREFETCHES: 0
L2C PREFETCHES SAME FILL-ORIGIN LEVEL: 0 DIFFERENT FILL-ORIGIN LEVEL: 0
L2C AVERAGE MISS LATENCY: 47.1272 cycles
L2C RQ	ACCESS:    4180662	FORWARD:          0	MERGED:          0	TO_CACHE:    4180654
L2C WQ	ACCESS:     571507	FORWARD:          8	MERGED:          0	TO_CACHE:     571507
L2C PQ	ACCESS:      12112	FORWARD:          0	MERGED:          0	TO_CACHE:      12112

L2C Instructions Evicting Data 113869
L2C Translations Evicting Data 24956
L2C Data Evicting Data 188885
L2C Instructions Evicting Instructions 154976
L2C Translations Evicting Instructions 7841
L2C Data Evicting Instructions 108566
L2C Instructions Evicting Translations 8771
L2C Translations Evicting Translations 4295
L2C Data Evicting Translations 23366
L2C Dense regions hint from L2: 0
PSCL5 TOTAL     ACCESS:     127363  HIT:     127363  MISS:          0  HIT %:        100  MISS %:          0   MPKI: 0
PSCL5 LOAD TRANSLATION ACCESS:      53102  HIT:      53102  MISS:          0  HIT %:        100  MISS %:          0   MPKI: 0
PSCL5 TRANSLATION FROM L1D PREFETCHER ACCESS:      74261  HIT:      74261  MISS:          0  HIT %:        100  MISS %:          0   MPKI: 0
PSCL5 PREFETCH  REQUESTED:          0  ISSUED:          0  USEFUL:          0  USELESS:          0
PSCL5 USEFUL LOAD PREFETCHES:          0 PREFETCH ISSUED TO LOWER LEVEL:          0  ACCURACY: -nan
PSCL5 TIMELY PREFETCHES:          0 LATE PREFETCHES: 0 DROPPED PREFETCHES: 0
PSCL5 PREFETCHES SAME FILL-ORIGIN LEVEL: 0 DIFFERENT FILL-ORIGIN LEVEL: 0

PSCL4 TOTAL     ACCESS:     126942  HIT:     126811  MISS:        131  HIT %:    99.8968  MISS %:   0.103197   MPKI: 0.000655
PSCL4 LOAD TRANSLATION ACCESS:      52681  HIT:      52550  MISS:        131  HIT %:    99.7513  MISS %:   0.248667   MPKI: 0.000655
PSCL4 TRANSLATION FROM L1D PREFETCHER ACCESS:      74261  HIT:      74261  MISS:          0  HIT %:        100  MISS %:          0   MPKI: 0
PSCL4 PREFETCH  REQUESTED:          0  ISSUED:          0  USEFUL:          0  USELESS:          0
PSCL4 USEFUL LOAD PREFETCHES:          0 PREFETCH ISSUED TO LOWER LEVEL:          0  ACCURACY: -nan
PSCL4 TIMELY PREFETCHES:          0 LATE PREFETCHES: 0 DROPPED PREFETCHES: 0
PSCL4 PREFETCHES SAME FILL-ORIGIN LEVEL: 0 DIFFERENT FILL-ORIGIN LEVEL: 0

PSCL3 TOTAL     ACCESS:      92858  HIT:      78664  MISS:      14194  HIT %:    84.7143  MISS %:    15.2857   MPKI: 0.07097
PSCL3 LOAD TRANSLATION ACCESS:      51286  HIT:      37092  MISS:      14194  HIT %:    72.3238  MISS %:    27.6762   MPKI: 0.07097
PSCL3 TRANSLATION FROM L1D PREFETCHER ACCESS:      41572  HIT:      41572  MISS:          0  HIT %:        100  MISS %:          0   MPKI: 0
PSCL3 PREFETCH  REQUESTED:          0  ISSUED:          0  USEFUL:          0  USELESS:          0
PSCL3 USEFUL LOAD PREFETCHES:          0 PREFETCH ISSUED TO LOWER LEVEL:          0  ACCURACY: -nan
PSCL3 TIMELY PREFETCHES:          0 LATE PREFETCHES: 0 DROPPED PREFETCHES: 0
PSCL3 PREFETCHES SAME FILL-ORIGIN LEVEL: 0 DIFFERENT FILL-ORIGIN LEVEL: 0

PSCL2 TOTAL     ACCESS:      77948  HIT:      47222  MISS:      30726  HIT %:    60.5814  MISS %:    39.4186   MPKI: 0.15363
PSCL2 LOAD TRANSLATION ACCESS:      53103  HIT:      22377  MISS:      30726  HIT %:    42.1389  MISS %:    57.8611   MPKI: 0.15363
PSCL2 TRANSLATION FROM L1D PREFETCHER ACCESS:      24845  HIT:      24845  MISS:          0  HIT %:        100  MISS %:          0   MPKI: 0
PSCL2 PREFETCH  REQUESTED:          0  ISSUED:          0  USEFUL:          0  USELESS:          0
PSCL2 USEFUL LOAD PREFETCHES:          0 PREFETCH ISSUED TO LOWER LEVEL:          0  ACCURACY: -nan
PSCL2 TIMELY PREFETCHES:          0 LATE PREFETCHES: 0 DROPPED PREFETCHES: 0
PSCL2 PREFETCHES SAME FILL-ORIGIN LEVEL: 0 DIFFERENT FILL-ORIGIN LEVEL: 0

LLC TOTAL     ACCESS:     766642  HIT:     681525  MISS:      85117  HIT %:    88.8974  MISS %:    11.1026   MPKI: 0.425585
LLC LOAD      ACCESS:     518029  HIT:     448958  MISS:      69071  HIT %:    86.6666  MISS %:    13.3334   MPKI: 0.345355
LLC RFO       ACCESS:      78953  HIT:      72248  MISS:       6705  HIT %:    91.5076  MISS %:    8.49239   MPKI: 0.033525
LLC PREFETCH  ACCESS:       1451  HIT:       1328  MISS:        123  HIT %:    91.5231  MISS %:    8.47691   MPKI: 0.000615
AGUS PREFETCH L1 MISS: 0
LLC WRITEBACK ACCESS:     131117  HIT:     130921  MISS:        196  HIT %:    99.8505  MISS %:   0.149485   MPKI: 0.00098
LLC LOAD TRANSLATION ACCESS:      37022  HIT:      28001  MISS:       9021  HIT %:    75.6334  MISS %:    24.3666   MPKI: 0.045105
LLC TRANSLATION FROM L1D PREFETCHER ACCESS:         70  HIT:         69  MISS:          1  HIT %:    98.5714  MISS %:    1.42857   MPKI: 5e-06
LLC PREFETCH  REQUESTED:          0  ISSUED:          0  USEFUL:          1  USELESS:         80
LLC USEFUL LOAD PREFETCHES:          1 PREFETCH ISSUED TO LOWER LEVEL:        123  ACCURACY: 0.813008
LLC TIMELY PREFETCHES:          1 LATE PREFETCHES: 0 DROPPED PREFETCHES: 0
LLC PREFETCHES SAME FILL-ORIGIN LEVEL: 0 DIFFERENT FILL-ORIGIN LEVEL: 0
LLC AVERAGE MISS LATENCY: 135.171 cycles
LLC RQ	ACCESS:     634074	FORWARD:          0	MERGED:          0	TO_CACHE:     634074
LLC WQ	ACCESS:     131117	FORWARD:          0	MERGED:          0	TO_CACHE:     131117
LLC PQ	ACCESS:       1451	FORWARD:          0	MERGED:          0	TO_CACHE:       1451

LLC Dense regions hint to LLC: 0

RAW hits: 2470242
Loads Generated: 49988386
Loads sent to L1D: 47518144
Stores Generated: 21914186
Stores sent to L1D: 21914197
Major fault: 0 Minor fault: 6990
Allocated PAGES: 6990
ucb ended
-----------------------------------------------------------------------------------------------------------------------------------------------------------------------------------------------------
Offsets elements: -1 -1465122642389 -23790015 1465146432406 -6889235 541306408 -541304708 541304516 -534416987 -6889229 6889230 3 -6889064 -1465115753325 1465122642391 -6887763 541304745 -1465657059371 1465122642390 -9815 -23780200 1465139543171 1700 541304708 -191 -541306217 6889235 541304517 169 1302 -1302 6889066 -6 1 2 -1465122642391 -1465122642390 1465657059372 -1465657069188 1465657069188 1465122652201 534416987 1465122652200 6 -1465146432405 1465680849579 -253 62 -534416983 1465115753156 541306217 -534416982 534416982 -541304517 -1700 6889060 -6887759 6887763 1465657059373 -2 534416983 -1465680852668 3280 1465680849326 -1465657059311 -6889234 541306218 -6887535 -534416989 4 -6887534 -1531 6889064 -6887764 1465657059374 -1465657069189 1465657069189 534416989 -534416985 -1465146435684 23793295 -1465139543171 541304455 -534416920 -541304518 6889234 -6889065 534416985 -1465680852669 -6889061 6889065 -6887762 -1465115754627 6887529 -1465115754626 -534416988 1465122652204 -1465146435685 1465139546451 541306219 1465657059375 -1465657069190 1465657069190 5 1465146432405 534416922 -534416895 -28 -1465146435282 1465996233040 -849797757 34 -3 -1465146435775 -3280 64 -63 254 -251 251 -252 250 248 -249 249 -247 245 -246 243 -244 244 -242 240 -241 238 -239 237 -238 235 -236 236 -234 231 -232 229 -230 228 -227 225 -228 223 -224 221 -222 222 -220 218 -219 216 -217 217 -215 213 -214 211 -212 210 -211 208 -209 209 -207 204 -205 202 -203 203 -201 200 -197 198 -195 193 -194 192 -193 -59 61 -62 -534416897 -6889260 6889267 -6889266 -1465146435694 3271 1465139543156 171 6889097 -4 57 -1465146435370 -849797728 1465146435773 -1465146432493 -2880 1465146435397 849797645 -849797662 8 -1465146435461 1465146435454 534225971 -534225971 534225975 -534225974 -17 16 -16 7 -10 -1465146435369 -849797672 -1465122642477 1465122642478 -1465146435773 400 2880 1465996230160 -849797670 -52 -1465146435830 1465139546564 -1465139528234 -18048 1465139546452 -172 -1465139546072 17840 -14925 -3151 1465146435570 -1465146417498 1465139528408 -1465115796725 46 1465122685769 -1465146417499 1465146417564 -1465146435411 16276 -16243 1465139546057 856686983 -1465996233115 2265 857 23791598 1465115751410 6889252 -1465146435310 1465146435311 849797729 -849797731 68 -67 76 -6889335 -1465139547920 16417 1465139529803 -61 53 -1465146435439 1465146435388 -1465146417501 -1111 -16707 -849797721 -1465146337865 15274192 -15371650 15371671 1465980861369 1465994131964 -1465978763342 1465131063629 -1465146435299 1465146435301 849797739 -849797740 15 -1465146337849 15274196 1465131063654 1465443677673 -312614004 327664873 -327664889 -1465146435652 1465146435667 -94590 -2851 17823 1465474082341 -1465131063633 -15371746 1465994131965 -1465978763343 1465131063632 327664890 -327664874 -1465146435290 1465474082342 -327664891 -1465474082375 79646 1465146337836 327664893 -327664890 -1465146435302 1465474100196 522132844 -522132845 -327664897 849797740 -849797737 75 -77 86 -83 -1465146435311 -849797738 327664877 195853 -327860729 -6889267 6889266 6889264 59 327664817 -334554143 -1465139546051 1465474296047 521936993 -849797756 327860762 -1465474296446 1465146435718 -1465146432438 1465139543173 334750245 -327861013 1465115753155 334750107 -334748407 -334750107 -1465122642385 1465122642389 1465450503262 -1465450503261 -23792745 23782928 1465450513078 -1465450513078 -327860878 -1465146432401 -6889233 6889232 327861011 -1465450503400 334750162 -334748462 6887535 -5 -6887760 1465450503317 -327860927 1465450503316 -1465474296061 -1465122652200 1465450513133 -327860932 1465450503400 -334750245 334748490 -334750190 1465450503344 -327860954 -1465474296089 1465450503399 -334750244 334748503 -334750203 6887759 -1465122642388 1465450503357 -327860968 1465450513174 -327860974 334748510 -334750210 1465450503365 -327860975 1465450513181 -327860981 334748513 -334750213 1465450503368 -327860978 1465450503367 -1465474296112 334748515 -334750215 -6889062 1465115754626 6887764 1465450503369 -1465450503369 -1465474296114 334748516 -334750216 1465450503371 1465450513187 -327860987 1465474293415 -221 -334749993 -1465115753157 334750216 6887760 -1465122642386 1465450503370 -1465474296115 327860981 -1465474296667 1465474293166 334750217 -334748517 327860982 -334750217 1465450503372 -1465450503371 -1465474296116 327860983 -1465474296668 1465139546453 334749995 -334748295 334748517 -9817 1465450513188 1465146435128 -327860761 28 1465474296668 1465474293167 255 241 239 -240 233 -229 227 220 -223 214 -213 -210 207 -208 205 -206 -204 201 -202 199 -200 197 -198 194 -196 -190 188 -186 183 -182 180 -181 178 -179 175 -176 173 -174 -170 167 -168 165 -166 163 -164 161 -162 158 -159 156 -157 -154 151 -152 150 -149 149 -147 143 -144 140 -141 138 -139 136 -137 134 -135 132 -133 130 -131 128 -129 126 -127 123 -124 121 -122 -119 116 -117 114 -115 112 -113 111 -109 110 -106 104 -105 102 -103 100 -101 98 -99 96 -97 94 -95 92 -93 89 -91 87 -88 84 -85 82 80 -81 78 -79 74 -75 73 -70 -71 65 -66 63 -64 -60 -56 54 -53 52 -51 49 -48 47 -46 45 -44 43 -42 41 -40 39 -38 36 -34 35 -32 -327860737 -6889324 -327860923 -6887594 6889125 -6887823 -1471 170 6887823 -35 6889265 27 -6889294 6889295 327860922 -327860950 -1465146435447 -17818 -1465146418604 1465996216333 -1465146338089 9361502 1465136976575 -1465146435303 9458755 1465986774285 -2098407 -1465994134708 9458828 -9456563 1465146433110 -1465136976545 1465136976544 -1465146432253 1465996229993 -849797736 -1465146338077 1465136976576 -1465146338093 -1465146435667 97590 -97213 1465665609853 -1465665607002 14972 1465680643498 -534226046 534226046 -1465680661425 -9456565 1465680659160 -534226031 847699331 -1465994134605 3018 14805 1465680643500 -534226049 534226047 -1465680643532 1465146417485 -534226048 -1465146338066 -97236 1465680661354 315571686 -315571688 -1465680661353 1465146435299 -9 534226051 315571688 -849797723 -1465146435346 1465146435411 -1465146419135 1465146419143 -73 -6889256 -1465139546132 23791599 1465115751409 6889262 58 -8 327664815 -327664814 -327664885 -1465146435691 1465146432422 534226036 -1465680661352 534416896 315380833 -534416922 -1465146435718 1465680849580 -534417176 541306187 -534416952 534416952 -541304487 6887762 1465657059341 -1465657069158 1465657069158 -534416957 1465146432404 541306409 -534417174 541304503 -541304503 6889229 -6889060 6889061 1465122642388 1465657059357 -534416973 1465122652205 1465139544871 -534417173 534416975 -534416980 541306210 -534416977 1465115754855 -1465115753323 541304739 -1465657059364 1465657059364 -534416976 -1465122652205 541304514 -541306045 -6887758 1465657059368 -1465657069185 -1465122652201 -534416981 541306047 1465657059370 -1465657069187 1465657069187 541306216 -541306047 6887758 -1465122642383 534416981 -1465680849387 23790017 1465122642387 -1465657069379 1465122652206 1465657059371 -1465657059563 1465657059310 -541306048 23790016 534416921 -541306218 -1465122642387 534416984 -23783480 1465146435685 -23790016 541306155 -541304455 23793296 -541306219 -6887533 -1465115754625 -534416990 -1465146435683 1465146435684 -1465146432431 1465146432403 1465146435315 534416888 -534416890 849797724 -849797663 1465680849390 -1465680849390 1465680849327 230 226 219 -218 215 -216 212 206 -199 196 1465139546428 -1465139543156 1465146432424 -6889097 6889091 -58 -849797667 24 -1465146435395 1465146435378 849797662 1465146435461 -7 -534225976 17 -18 1465146435368 849797672 -849797624 125 -167 42 44 -126 168 -155 292 -1465146435666 -849797668 -1465122642478 -23792893 23792894 1465972440147 -1465972440147 -23792967 867 -3057 -1465996233040 1465146435661 849797379 -849797380 -1465146435660 1465146435666 849797374 -849797378 -1465146435511 1465996161211 177 -1465972368647 1465972368439 -849725281 -385 -1465122642774 1465972368474 71674 -71709 -1465122658045 1465972383388 -386 -1465122657656 1465972383361 -849725700 -849797375 -1465122655378 2786 -23783105 1465993722535 -847303112 12 -11 11 -1465122649193 1465122649193 -1465122649201 1465122649340 -1465122649340 1465122649189 -1465146435553 23786364 1465122649175 13 -1465122649189 -23786364 1465146435553 -14 26 -25 25 -1465122649200 1465122649200 -12 -1465122655440 1465122655440 31 -1465146435617 1465146435558 60 -1465122652773 1465122652784 1465122649177 -1465122661778 1465122661783 -1465122655395 1465122655395 -1465146436656 23781272 -2796 -23780238 14271 1465996218769 -1465996207826 23748627 -23773841 -1465122661824 6445 -5261 8047 -1465969958502 -36 -23781213 23781250 -39 1465118979370 -1465118979321 -47 1465115767496 -1726 -1465115762952 1465115762993 -1465139545911 1465139546081 3213399 -3213399 3676046 -1465122655380 1465115764679 1701 -1701 -1697 6889612 -1465122652609 -23783057 -1465996232938 1465996161233 849725343 -1465972383385 1465122657649 849725673 -1465122658042 14884 -14887 1465122657653 -1465146435658 -1465996232900 -94756 94761 -94761 94755 -94755 94741 1465146435467 -1465146417814 7455 -25095 1465146435455 -1465146528800 118440 1465146410344 -1465146435455 -93342 118453 -25111 -1465146410328 -118466 118466 1465146410336 -93340 118459 -25119 -1465146410340 -118456 118456 -25115 25117 -118458 1465146528796 -1465146410338 -25117 25118 -118459 -25118 -1465146528796 -1465146417783 1465146417784 -1465146435594 1465146435658 849797382 -849797446 -1465146435668 866 -3291 21916 1465996211124 -1465996211086 8401 1465146405302 -1465146435657 -849797384 -849797382 9836 -9837 1465115762994 -856686989 -1465115753156 -1465115753324 -23792895 -6889446 1465972440144 -856685518 6888143 -1465122652607 -9836 9837 1465115753157 -856686820 -169 6889614 -1465122642768 -23792897 1465146435664 -6888142 -1465115753322 1465972440142 -1465115767236 2793 1465122652590 -1465122652598 -23783072 -1465972440145 6889609 -1465122642764 1465115753324 6889440 -6888138 -1465115754855 1465122642814 -1465122642814 -9816 9816 1465122642764 -849797381 -1465122655372 -1465122652599 -1465972440143 1465115753154 -1465122642763 1465115753323 -6889440 1465115754625 6889718 -1465122642872 1465115754854 6888018 -112 -1465122642762 1465122652580 1465146435659 849797381 -849797370 -6889620 1706 -1465115754862 -23793295 -1465146435882 1465139546280 172 -171 1465146417563 -1465146417564 1465139528409 -23749531 23749577 -23733301 -1465972438395 -23794720 1465139543008 6889256 -6889254 1465139546220 -1465146419070 1465146419067 16707 1465146418604 1465994135086 -1465994132821 15368622 -1465131063632 1465131063630 1465459049671 -1465458951853 -97441 2851 1465474097312 -1465474082341 1465146417452 327664889 -1465474100268 15371746 -15369481 1465994132822 -1465994131965 1465131063631 327664892 -1465146435274 1465474082375 -1465146337838 1465474002732 -1465474100196 849797738 327664876 334749996 -334749996 1465146435284 327860763 -521936994 -1465115753158 1465450503403 -334750247 334748407 -327860872 -1465122642392 1465450503263 -1465474296006 1465450503401 334748462 1465450503319 1465450503318 1465450503346 1465450513161 334750244 -334748503 1465450503360 -23792743 334750210 -334748510 -23792744 1465450513184 -327860984 -327860980 -334748516 1465450503373 -327860760 1465450503374 -1465450503373 334748295 -327860982 -327860983 1465146432435 -327860669 -243 187 -188 185 -184 181 179 -180 176 -178 174 -175 -173 -165 159 -161 157 -158 154 152 -153 -151 148 146 144 -145 141 -143 139 -140 137 -138 135 -136 133 -134 131 -132 124 -121 -111 108 105 103 -104 101 -102 99 -100 97 -98 95 -96 93 -94 88 -84 -82 83 79 -80 77 -78 -76 -74 70 -69 66 -65 56 -54 50 -49 48 -41 40 38 33 -30 29 -248 -327860736 6889324 1471 -1301 6887788 -27 -6889265 327860890 -327860898 -9458728 -1465986774285 -9458830 1465994134708 -1465984675880 1465994132444 -1465994131587 1465146432253 534226049 1465146435274 -1465146417451 1465680643532 -534226047 -1465146435386 534226035 -534226034 1465139546090 -1465146419143 -14053 23792456 -23791599 6889263 -13 327664814 -1465139546427 1465680658457 1465680852207 -534416888 534417174 -541304709 -541306018 1465657059343 -541306034 534416974 -534416968 1465122642386 541304510 -541306041 1465657059366 -1465657069181 1465657069181 541306214 1465115754856 1465115754627 1465657069185 -534416984 -534416986 534416988 -1465657059372 23790015 6889233 -541306050 -1465146432404 534416923 1465146435316 849797722 1465680852670 -250 247 246 -245 242 -237 234 -235 -231 -226 195 -534416896 -849797665 1465146435395 -19 -849797654 -23793296 1465139546132 -1465996230850 23792455 -23791598 69 -1465139546220 1465146435487 -6887567 6887564 -1465146419067 1465146419069 -2098029 -1465994135086 97818 1465458951853 -1465459049294 1465474082340 -97464 -1465139546453 -1465122642422 327861012 -334748547 1465450503261 327860927 -327860933 1465450503358 1465450503364 -1465474293384 1465474296115 -1465450513187 -334749995 166 164 155 -150 147 -148 145 -146 -123 122 -120 119 115 -116 113 -114 109 -110 106 -108 
Potential of Offsets elements: 2036.11 462.25 148.25 380.25 924.25 296.25 28.2498 67.2498 226.25 77.2498 830.25 548.25 176.25 28.2498 28.2498 412.25 28.2498 28.2498 136.25 657.25 171.25 68.2498 754.25 70.2498 28.2498 28.2498 1468.25 47.2498 272.25 224.25 63.2498 508.25 436.25 1814.69 718.25 28.2498 856.25 97.2498 28.2498 28.2498 388.25 70.2498 128.25 534.25 208.25 28.2498 28.2498 73.2498 28.2498 28.2498 28.2498 28.2498 28.2498 28.2498 70.2498 28.2498 28.2498 28.2498 28.2498 574.25 28.2498 100.25 50.2498 54.2498 28.2498 28.2498 652.25 28.2498 28.2498 1313.25 28.2498 301.25 28.2498 28.2498 28.2498 344.25 28.2498 28.2498 28.2498 28.2498 28.2498 287.25 50.2498 28.2498 28.2498 28.2498 28.2498 28.2498 28.2498 28.2498 28.2498 28.2498 28.2498 28.2498 28.2498 28.2498 28.2498 28.2498 28.2498 28.2498 28.2498 28.2498 28.2498 1104.25 28.2498 28.2498 28.2498 731.25 28.2498 284.25 28.2498 337.25 802.25 28.2498 112.25 67.2498 72.2498 38.2498 37.2498 59.2498 104.25 44.2498 37.2498 67.2498 28.2498 34.2498 29.2498 69.2498 28.2498 30.2498 30.2498 30.2498 32.2498 28.2498 30.2498 31.2498 30.2498 28.2498 28.2498 29.2498 28.2498 28.2498 31.2498 28.2498 181.25 28.2498 43.2498 52.2498 28.2498 28.2498 40.2498 47.2498 32.2498 28.2498 30.2498 28.2498 28.2498 28.2498 52.2498 29.2498 28.2498 28.2498 38.2498 28.2498 28.2498 33.2498 28.2498 28.2498 28.2498 28.2498 29.2498 28.2498 28.2498 28.2498 28.2498 28.2498 28.2498 28.2498 28.2498 29.2498 28.2498 31.2498 28.2498 28.2498 28.2498 40.2498 35.2498 136.25 47.2498 28.2498 28.2498 28.2498 28.2498 28.2498 28.2498 28.2498 59.2498 28.2498 251.25 48.2498 29.2498 28.2498 28.2498 28.2498 135.25 28.2498 28.2498 28.2498 279.25 28.2498 28.2498 28.2498 28.2498 28.2498 28.2498 128.25 333.25 244.25 117.25 195.25 28.2498 28.2498 135.25 28.2498 28.2498 49.2498 196.25 42.2498 35.2498 102.25 33.2498 28.2498 28.2498 30.2498 28.2498 132.25 28.2498 29.2498 28.2498 28.2498 30.2498 32.2498 28.2498 28.2498 67.2498 28.2498 42.2498 28.2498 35.2498 28.2498 33.2498 28.2498 56.2498 32.2498 32.2498 37.2498 28.2498 28.2498 28.2498 72.2498 29.2498 56.2498 42.2498 104.25 126.25 33.2498 96.2498 28.2498 28.2498 55.2498 75.2498 184.25 28.2498 38.2498 28.2498 30.2498 38.2498 43.2498 28.2498 28.2498 115.25 28.2498 28.2498 28.2498 30.2498 28.2498 28.2498 31.2498 28.2498 28.2498 586.25 28.2498 28.2498 28.2498 28.2498 28.2498 28.2498 28.2498 28.2498 28.2498 28.2498 88.2498 32.2498 30.2498 28.2498 28.2498 28.2498 30.2498 28.2498 28.2498 28.2498 28.2498 28.2498 28.2498 30.2498 31.2498 28.2498 28.2498 28.2498 28.2498 28.2498 58.2498 36.2498 28.2498 28.2498 28.2498 192.25 28.2498 39.2498 90.2498 28.2498 28.2498 28.2498 28.2498 28.2498 28.2498 28.2498 28.2498 318.25 28.2498 28.2498 28.2498 28.2498 28.2498 28.2498 28.2498 28.2498 28.2498 28.2498 28.2498 28.2498 28.2498 28.2498 28.2498 88.2498 28.2498 28.2498 28.2498 28.2498 28.2498 28.2498 28.2498 28.2498 28.2498 28.2498 28.2498 28.2498 28.2498 28.2498 28.2498 28.2498 28.2498 28.2498 935.25 28.2498 28.2498 28.2498 28.2498 52.2498 28.2498 28.2498 28.2498 28.2498 28.2498 28.2498 28.2498 28.2498 28.2498 28.2498 28.2498 35.2498 28.2498 28.2498 28.2498 28.2498 28.2498 28.2498 28.2498 28.2498 28.2498 28.2498 28.2498 28.2498 28.2498 28.2498 28.2498 28.2498 28.2498 28.2498 28.2498 28.2498 28.2498 28.2498 28.2498 28.2498 28.2498 28.2498 28.2498 28.2498 28.2498 28.2498 28.2498 28.2498 28.2498 28.2498 30.2498 33.2498 28.2498 28.2498 28.2498 28.2498 28.2498 28.2498 28.2498 28.2498 28.2498 28.2498 28.2498 28.2498 28.2498 28.2498 28.2498 28.2498 28.2498 28.2498 28.2498 28.2498 28.2498 28.2498 28.2498 28.2498 28.2498 28.2498 108.25 28.2498 28.2498 56.2498 28.2498 28.2498 28.2498 28.2498 28.2498 28.2498 30.2498 31.2498 28.2498 28.2498 28.2498 38.2498 28.2498 28.2498 28.2498 28.2498 40.2498 28.2498 28.2498 28.2498 28.2498 34.2498 28.2498 32.2498 28.2498 28.2498 28.2498 28.2498 32.2498 28.2498 37.2498 28.2498 28.2498 28.2498 28.2498 42.2498 28.2498 51.2498 175.25 73.2498 77.2498 29.2498 46.2498 35.2498 76.2498 28.2498 28.2498 28.2498 32.2498 40.2498 28.2498 28.2498 47.2498 63.2498 28.2498 54.2498 29.2498 28.2498 28.2498 28.2498 28.2498 28.2498 262.25 28.2498 28.2498 28.2498 28.2498 57.2498 28.2498 184.25 28.2498 30.2498 71.2498 28.2498 50.2498 118.25 228.25 36.2498 54.2498 92.2498 154.25 73.2498 45.2498 59.2498 129.25 177.25 206.25 28.2498 32.2498 61.2498 69.2498 30.2498 35.2498 28.2498 52.2498 76.2498 40.2498 49.2498 127.25 62.2498 74.2498 37.2498 28.2498 28.2498 28.2498 72.2498 200.25 45.2498 48.2498 62.2498 110.25 44.2498 81.2498 104.25 45.2498 50.2498 272.25 46.2498 84.2498 281.25 53.2498 132.25 54.2498 205.25 160.25 36.2498 279.25 97.2498 110.25 37.2498 281.25 128.25 28.2498 311.25 37.2498 113.25 28.2498 307.25 81.2498 30.2498 304.25 258.25 101.25 230.25 417.25 349.25 33.2498 60.2498 71.2498 28.2498 28.2498 28.2498 509.25 48.2498 28.2498 380.25 70.2498 52.2498 28.2498 59.2498 28.2498 108.25 33.2498 28.2498 32.2498 28.2498 43.2498 28.2498 28.2498 76.2498 28.2498 28.2498 28.2498 31.2498 28.2498 28.2498 30.2498 30.2498 28.2498 28.2498 28.2498 28.2498 28.2498 28.2498 28.2498 28.2498 28.2498 28.2498 28.2498 28.2498 44.2498 38.2498 28.2498 28.2498 46.2498 28.2498 43.2498 28.2498 28.2498 30.2498 28.2498 32.2498 36.2498 28.2498 28.2498 28.2498 28.2498 28.2498 28.2498 28.2498 36.2498 72.2498 28.2498 36.2498 28.2498 361.25 28.2498 59.2498 28.2498 28.2498 28.2498 28.2498 28.2498 34.2498 28.2498 28.2498 28.2498 28.2498 28.2498 553.25 313.25 28.2498 28.2498 28.2498 28.2498 28.2498 28.2498 28.2498 28.2498 28.2498 28.2498 28.2498 28.2498 28.2498 28.2498 28.2498 28.2498 28.2498 28.2498 28.2498 28.2498 28.2498 28.2498 28.2498 28.2498 28.2498 28.2498 28.2498 28.2498 28.2498 28.2498 28.2498 28.2498 28.2498 28.2498 68.2498 28.2498 28.2498 28.2498 28.2498 28.2498 28.2498 28.2498 28.2498 28.2498 28.2498 28.2498 28.2498 28.2498 28.2498 28.2498 28.2498 28.2498 28.2498 28.2498 28.2498 28.2498 28.2498 28.2498 28.2498 28.2498 28.2498 28.2498 28.2498 28.2498 28.2498 28.2498 28.2498 28.2498 28.2498 28.2498 28.2498 28.2498 28.2498 28.2498 28.2498 28.2498 28.2498 28.2498 28.2498 28.2498 28.2498 28.2498 28.2498 28.2498 28.2498 28.2498 28.2498 28.2498 28.2498 28.2498 28.2498 28.2498 28.2498 28.2498 28.2498 28.2498 28.2498 28.2498 28.2498 28.2498 31.2498 62.2498 46.2498 109.25 73.2498 28.2498 28.2498 37.2498 55.2498 28.2498 28.2498 28.2498 28.2498 28.2498 28.2498 28.2498 844.25 28.2498 104.25 34.2498 37.2498 224.25 28.2498 367.25 114.25 30.2498 28.2498 28.2498 28.2498 211.25 260.25 105.25 128.25 34.2498 131.25 28.2498 33.2498 28.2498 56.2498 244.25 124.25 28.2498 28.2498 28.2498 28.2498 28.2498 534.25 29.2498 28.2498 28.2498 30.2498 28.2498 28.2498 46.2498 42.2498 28.2498 28.2498 28.2498 28.2498 28.2498 184.25 79.2498 28.2498 28.2498 28.2498 28.2498 28.2498 113.25 32.2498 28.2498 28.2498 28.2498 28.2498 28.2498 28.2498 34.2498 28.2498 246.25 148.25 62.2498 28.2498 28.2498 66.2498 28.2498 28.2498 28.2498 28.2498 28.2498 28.2498 280.25 206.25 60.2498 28.2498 496.25 182.25 653.25 31.2498 28.2498 28.2498 260.25 28.2498 28.2498 586.25 30.2498 28.2498 227.25 67.2498 28.2498 28.2498 28.2498 28.2498 28.2498 28.2498 28.2498 28.2498 28.2498 28.2498 78.2498 28.2498 28.2498 36.2498 28.2498 28.2498 32.2498 28.2498 36.2498 28.2498 249.25 28.2498 32.2498 122.25 28.2498 28.2498 42.2498 28.2498 28.2498 28.2498 28.2498 28.2498 28.2498 28.2498 28.2498 28.2498 28.2498 28.2498 28.2498 39.2498 28.2498 28.2498 28.2498 28.2498 28.2498 28.2498 28.2498 28.2498 28.2498 28.2498 28.2498 28.2498 28.2498 28.2498 28.2498 28.2498 30.2498 28.2498 28.2498 28.2498 49.2498 28.2498 28.2498 28.2498 28.2498 46.2498 28.2498 28.2498 28.2498 28.2498 28.2498 28.2498 28.2498 28.2498 28.2498 28.2498 28.2498 28.2498 28.2498 47.2498 28.2498 28.2498 28.2498 38.2498 28.2498 28.2498 28.2498 28.2498 28.2498 28.2498 28.2498 28.2498 28.2498 28.2498 28.2498 28.2498 28.2498 28.2498 28.2498 28.2498 28.2498 34.2498 28.2498 28.2498 28.2498 28.2498 28.2498 28.2498 28.2498 28.2498 28.2498 28.2498 28.2498 28.2498 600.25 28.2498 28.2498 28.2498 28.2498 28.2498 218.25 28.2498 28.2498 28.2498 28.2498 28.2498 140.25 117.25 28.2498 28.2498 28.2498 28.2498 28.2498 28.2498 28.2498 28.2498 28.2498 28.2498 28.2498 28.2498 28.2498 28.2498 28.2498 28.2498 28.2498 28.2498 28.2498 28.2498 28.2498 28.2498 28.2498 28.2498 48.2498 33.2498 28.2498 28.2498 337.25 28.2498 248.25 34.2498 94.2498 28.2498 28.2498 94.2498 28.2498 73.2498 28.2498 76.2498 28.2498 28.2498 28.2498 28.2498 28.2498 28.2498 44.2498 28.2498 28.2498 53.2498 28.2498 28.2498 28.2498 29.2498 28.2498 28.2498 28.2498 39.2498 28.2498 28.2498 31.2498 33.2498 35.2498 28.2498 33.2498 31.2498 28.2498 28.2498 31.2498 28.2498 28.2498 65.2498 28.2498 28.2498 28.2498 46.2498 28.2498 30.2498 36.2498 28.2498 31.2498 28.2498 40.2498 28.2498 28.2498 63.2498 28.2498 40.2498 28.2498 30.2498 28.2498 35.2498 40.2498 36.2498 58.2498 28.2498 28.2498 28.2498 28.2498 28.2498 28.2498 28.2498 28.2498 28.2498 28.2498 28.2498 28.2498 28.2498 97.2498 28.2498 28.2498 28.2498 28.2498 30.2498 91.2498 28.2498 28.2498 37.2498 28.2498 28.2498 28.2498 28.2498 28.2498 28.2498 28.2498 28.2498 28.2498 28.2498 138.25 28.2498 28.2498 28.2498 28.2498 28.2498 28.2498 30.2498 53.2498 63.2498 28.2498 31.2498 40.2498 28.2498 28.2498 32.2498 71.2498 35.2498 38.2498 48.2498 28.2498 60.2498 40.2498 28.2498 34.2498 121.25 34.2498 98.2498 35.2498 70.2498 63.2498 37.2498 31.2498 28.2498 31.2498 28.2498 66.2498 28.2498 28.2498 28.2498 28.2498 78.2498 28.2498 28.2498 28.2498 28.2498 35.2498 51.2498 56.2498 56.2498 180.25 66.2498 45.2498 189.25 158.25 100.25 36.2498 111.25 288.25 235.25 29.2498 82.2498 114.25 55.2498 43.2498 28.2498 48.2498 87.2498 61.2498 38.2498 40.2498 65.2498 97.2498 126.25 55.2498 65.2498 66.2498 31.2498 62.2498 93.2498 52.2498 89.2498 120.25 57.2498 377.25 84.2498 28.2498 28.2498 54.2498 68.2498 28.2498 155.25 28.2498 28.2498 28.2498 28.2498 28.2498 28.2498 28.2498 28.2498 28.2498 28.2498 28.2498 28.2498 28.2498 28.2498 28.2498 28.2498 28.2498 28.2498 28.2498 31.2498 28.2498 28.2498 28.2498 28.2498 28.2498 368.25 28.2498 28.2498 28.2498 28.2498 28.2498 28.2498 28.2498 28.2498 28.2498 28.2498 28.2498 28.2498 28.2498 28.2498 28.2498 28.2498 28.2498 28.2498 28.2498 28.2498 28.2498 28.2498 28.2498 28.2498 28.2498 28.2498 28.2498 28.2498 28.2498 28.2498 28.2498 28.2498 28.2498 28.2498 29.2498 34.2498 33.2498 30.2498 28.2498 31.2498 28.2498 41.2498 28.2498 43.2498 28.2498 28.2498 28.2498 28.2498 330.25 28.2498 28.2498 28.2498 48.2498 28.2498 28.2498 89.2498 138.25 28.2498 28.2498 28.2498 28.2498 28.2498 42.2498 28.2498 28.2498 29.2498 30.2498 31.2498 41.2498 33.2498 28.2498 28.2498 28.2498 28.2498 28.2498 28.2498 28.2498 28.2498 28.2498 28.2498 28.2498 28.2498 28.2498 33.2498 210.25 32.2498 28.2498 35.2498 28.2498 30.2498 200.25 36.2498 59.2498 154.25 61.2498 118.25 150.25 69.2498 28.2498 68.2498 34.2498 32.2498 
rewards of Offsets elements: 2036 434 120 352 896 268 0 39 198 49 802 520 148 0 0 384 0 0 108 629 143 40 726 42 0 0 1440 19 244 196 35 480 408 1813 690 0 828 69 0 0 360 42 100 506 180 0 0 45 0 0 0 0 0 0 42 0 0 0 0 546 0 72 22 26 0 0 624 0 0 1285 0 273 0 0 0 316 0 0 0 0 0 259 22 0 0 0 0 0 0 0 0 0 0 0 0 0 0 0 0 0 0 0 0 1076 0 0 0 703 0 256 0 309 774 0 84 39 44 10 9 31 76 16 9 39 0 6 1 41 0 2 2 2 4 0 2 3 2 0 0 1 0 0 3 0 153 0 15 24 0 0 12 19 4 0 2 0 0 0 24 1 0 0 10 0 0 5 0 0 0 0 1 0 0 0 0 0 0 0 0 1 0 3 0 0 0 12 7 108 19 0 0 0 0 0 0 0 31 0 223 20 1 0 0 0 107 0 0 0 251 0 0 0 0 0 0 100 305 216 89 167 0 0 107 0 0 21 168 14 7 74 5 0 0 2 0 104 0 1 0 0 2 4 0 0 39 0 14 0 7 0 5 0 28 4 4 9 0 0 0 44 1 28 14 76 98 5 68 0 0 27 47 156 0 10 0 2 10 15 0 0 87 0 0 0 2 0 0 3 0 0 558 0 0 0 0 0 0 0 0 0 0 60 4 2 0 0 0 2 0 0 0 0 0 0 2 3 0 0 0 0 0 30 8 0 0 0 164 0 11 62 0 0 0 0 0 0 0 0 290 0 0 0 0 0 0 0 0 0 0 0 0 0 0 0 60 0 0 0 0 0 0 0 0 0 0 0 0 0 0 0 0 0 0 907 0 0 0 0 24 0 0 0 0 0 0 0 0 0 0 0 7 0 0 0 0 0 0 0 0 0 0 0 0 0 0 0 0 0 0 0 0 0 0 0 0 0 0 0 0 0 0 0 0 0 0 2 5 0 0 0 0 0 0 0 0 0 0 0 0 0 0 0 0 0 0 0 0 0 0 0 0 0 0 80 0 0 28 0 0 0 0 0 0 2 3 0 0 0 10 0 0 0 0 12 0 0 0 0 6 0 4 0 0 0 0 4 0 9 0 0 0 0 14 0 23 147 45 49 1 18 7 48 0 0 0 4 12 0 0 19 35 0 26 1 0 0 0 0 0 234 0 0 0 0 29 0 156 0 2 43 0 22 90 200 8 26 64 126 45 17 31 101 149 178 0 4 33 41 2 7 0 24 48 12 21 99 34 46 9 0 0 0 44 172 17 20 34 82 16 53 76 17 22 244 18 56 253 25 104 26 177 132 8 251 69 82 9 253 100 0 283 9 85 0 279 53 2 276 230 73 202 389 321 5 32 43 0 0 0 481 20 0 352 42 24 0 31 0 80 5 0 4 0 15 0 0 48 0 0 0 3 0 0 2 2 0 0 0 0 0 0 0 0 0 0 0 0 16 10 0 0 18 0 15 0 0 2 0 4 8 0 0 0 0 0 0 0 8 44 0 8 0 333 0 31 0 0 0 0 0 6 0 0 0 0 0 525 285 0 0 0 0 0 0 0 0 0 0 0 0 0 0 0 0 0 0 0 0 0 0 0 0 0 0 0 0 0 0 0 0 0 0 40 0 0 0 0 0 0 0 0 0 0 0 0 0 0 0 0 0 0 0 0 0 0 0 0 0 0 0 0 0 0 0 0 0 0 0 0 0 0 0 0 0 0 0 0 0 0 0 0 0 0 0 0 0 0 0 0 0 0 0 0 0 0 0 0 0 3 34 18 81 45 0 0 9 27 0 0 0 0 0 0 0 816 0 76 6 9 196 0 339 86 2 0 0 0 183 232 77 100 6 103 0 5 0 28 216 96 0 0 0 0 0 506 1 0 0 2 0 0 18 14 0 0 0 0 0 156 51 0 0 0 0 0 85 4 0 0 0 0 0 0 6 0 218 120 34 0 0 38 0 0 0 0 0 0 252 178 32 0 468 154 625 3 0 0 232 0 0 558 2 0 199 39 0 0 0 0 0 0 0 0 0 0 50 0 0 8 0 0 4 0 8 0 221 0 4 94 0 0 14 0 0 0 0 0 0 0 0 0 0 0 0 11 0 0 0 0 0 0 0 0 0 0 0 0 0 0 0 0 2 0 0 0 21 0 0 0 0 18 0 0 0 0 0 0 0 0 0 0 0 0 0 19 0 0 0 10 0 0 0 0 0 0 0 0 0 0 0 0 0 0 0 0 0 6 0 0 0 0 0 0 0 0 0 0 0 0 572 0 0 0 0 0 190 0 0 0 0 0 112 89 0 0 0 0 0 0 0 0 0 0 0 0 0 0 0 0 0 0 0 0 0 0 0 0 20 5 0 0 309 0 220 6 66 0 0 66 0 45 0 48 0 0 0 0 0 0 16 0 0 25 0 0 0 1 0 0 0 11 0 0 3 5 7 0 5 3 0 0 3 0 0 37 0 0 0 18 0 2 8 0 3 0 12 0 0 35 0 12 0 2 0 7 12 8 30 0 0 0 0 0 0 0 0 0 0 0 0 0 69 0 0 0 0 2 63 0 0 9 0 0 0 0 0 0 0 0 0 0 110 0 0 0 0 0 0 2 25 35 0 3 12 0 0 4 43 7 10 20 0 32 12 0 6 93 6 70 7 42 35 9 3 0 3 0 38 0 0 0 0 50 0 0 0 0 7 23 28 28 152 38 17 161 130 72 8 83 260 207 1 54 86 27 15 0 20 59 33 10 12 37 69 98 27 37 38 3 34 65 24 61 92 29 349 56 0 0 26 40 0 127 0 0 0 0 0 0 0 0 0 0 0 0 0 0 0 0 0 0 0 3 0 0 0 0 0 340 0 0 0 0 0 0 0 0 0 0 0 0 0 0 0 0 0 0 0 0 0 0 0 0 0 0 0 0 0 0 0 0 0 0 1 6 5 2 0 3 0 13 0 15 0 0 0 0 302 0 0 0 20 0 0 61 110 0 0 0 0 0 14 0 0 1 2 3 13 5 0 0 0 0 0 0 0 0 0 0 0 0 0 5 182 4 0 7 0 2 172 8 31 126 33 90 122 41 0 40 6 4 Printing Sanity3
offset_index value1371
offset list size1371
reward size1371
potential size1371
-----------------------------------------------------------------------------------------------------------------------------------------------------------------------------------------------------

DRAM Statistics
 CHANNEL 0
 RQ ROW_BUFFER_HIT:      30944  ROW_BUFFER_MISS:      53977
 DBUS_CONGESTED:         53
 WQ ROW_BUFFER_HIT:       2458  ROW_BUFFER_MISS:      15192  FULL:          0

 AVG_CONGESTED_CYCLE: 5
 All warmup complete: 2
Channel 0 Bank busy for read cycles: 0
Channel 0 Bank busy for write cycles: 0
Channel 0
Rank 0
0banks busy for read cycles: 321198132
0banks busy for write cycles: 13510
1banks busy for read cycles: 5920184
1banks busy for write cycles: 2090188
2banks busy for read cycles: 1267698
2banks busy for write cycles: 266660
3banks busy for read cycles: 183253
3banks busy for write cycles: 58431
4banks busy for read cycles: 68598
4banks busy for write cycles: 31842
5banks busy for read cycles: 34905
5banks busy for write cycles: 17144
6banks busy for read cycles: 15952
6banks busy for write cycles: 15270
7banks busy for read cycles: 8149
7banks busy for write cycles: 9204
8banks busy for read cycles: 4631
8banks busy for write cycles: 3325

CPU 0 Branch Prediction Accuracy: 99.8177% MPKI: 0.34573 Average ROB Occupancy at Mispredict: 34.3811
Branch types
NOT_BRANCH: 162062285 81.0311%
BRANCH_DIRECT_JUMP: 3424496 1.71225%
BRANCH_INDIRECT: 12879305 6.43965%
BRANCH_CONDITIONAL: 14259908 7.12995%
BRANCH_DIRECT_CALL: 2777775 1.38889%
BRANCH_INDIRECT_CALL: 909063 0.454531%
BRANCH_RETURN: 3686817 1.84341%
BRANCH_OTHER: 0 0%

DRAM PAGES: 1048576
Allocated PAGES: 6990
