
*** ChampSim Multicore Out-of-Order Simulator ***

Warmup Instructions: 50000000
Simulation Instructions: 200000000
Number of CPUs: 1
LLC sets: 2048
LLC ways: 16
Off-chip DRAM Size: 4096 MB Channels: 1 Width: 64-bit Data Rate: 6400 MT/s
CPU 0 runs traces/spec2k17/srv_35.champsimtrace.xz
.xz
BTB has LRU replacement policy
ITLB has LRU replacement policy
DTLB has LRU replacement policy
STLB has LRU replacement policy
L1I has LRU replacement policy
L1D has LRU replacement policy
Initialize SRRIP state for L2C
Initialize DRRIP state for LLC
Heartbeat CPU 0 instructions: 10000002 cycles: 2937068 heartbeat IPC: 3.40476 cumulative IPC: 3.40476 (Simulation time: 0 hr 0 min 41 sec) 
Heartbeat CPU 0 instructions: 20000000 cycles: 5877547 heartbeat IPC: 3.40081 cumulative IPC: 3.40278 (Simulation time: 0 hr 1 min 22 sec) 
Heartbeat CPU 0 instructions: 30000001 cycles: 8819823 heartbeat IPC: 3.39873 cumulative IPC: 3.40143 (Simulation time: 0 hr 2 min 4 sec) 
*** Reached end of trace for Core: 0 Repeating trace: traces/spec2k17/srv_35.champsimtrace.xz
Heartbeat CPU 0 instructions: 40000002 cycles: 11752571 heartbeat IPC: 3.40977 cumulative IPC: 3.40351 (Simulation time: 0 hr 2 min 48 sec) 
Heartbeat CPU 0 instructions: 50000000 cycles: 14692186 heartbeat IPC: 3.40181 cumulative IPC: 3.40317 (Simulation time: 0 hr 3 min 29 sec) 

Warmup complete CPU 0 instructions: 50000004 cycles: 14692187 (Simulation time: 0 hr 3 min 29 sec) 

Offsets elements: 
Potential of Offsets elements: 
rewards of Offsets elements: 
Printing Sanity1
offset list size2097
Offsets elements: 
Potential of Offsets elements: 
rewards of Offsets elements: 0 0 1007 876 3063 962 318 0 0 0 378 0 0 467 0 0 0 4 0 0 0 0 0 0 0 0 0 15 150 32 77 9 20 24 36 33 93 442 52 342 4 2 126 15 18 78 16 69 16 30 48 1 0 10 0 0 0 0 0 0 0 0 0 0 6 0 543 0 0 0 0 0 0 0 0 0 0 0 0 0 0 0 583 0 0 0 6 0 619 0 0 0 0 0 0 0 0 0 0 0 0 0 0 0 0 166 479 282 0 0 352 0 0 0 0 401 395 0 5 3 30 6 4 1 0 487 0 0 0 0 0 0 91 0 21 0 0 0 2 0 0 3 6 0 0 0 0 0 0 0 0 4 0 3 3 0 0 0 0 16 12 0 18 40 0 0 12 0 0 0 0 0 0 0 0 0 522 0 0 0 0 1 0 0 0 0 0 207 48 21 0 0 0 0 0 0 0 194 0 0 0 554 0 0 478 144 0 0 0 0 0 0 0 0 0 0 0 0 0 0 210 0 0 0 0 0 0 0 0 0 0 0 0 0 0 0 0 0 0 188 0 0 0 0 0 0 0 0 0 0 0 0 0 370 156 165 0 0 0 0 0 150 0 0 0 0 0 0 0 0 0 0 0 0 0 0 0 0 0 0 173 0 0 0 0 0 0 0 0 0 0 0 0 0 16 0 0 200 0 0 0 9 0 0 0 0 0 0 0 0 0 0 0 0 0 0 0 36 0 0 2 0 0 0 0 7 0 0 0 0 0 0 0 0 0 0 0 40 0 0 0 0 0 0 0 0 0 0 0 50 0 0 0 0 0 0 0 0 0 0 0 0 0 0 0 83 250 13 9 0 36 0 0 0 0 0 0 0 30 0 0 0 0 0 0 0 0 0 0 0 0 0 0 0 0 0 0 0 0 0 0 0 0 0 0 0 0 0 0 0 0 0 0 0 0 0 0 0 9 0 0 0 0 0 0 0 0 0 0 0 0 0 0 0 0 0 0 0 0 0 0 0 0 0 0 0 0 0 0 0 0 0 0 0 0 0 0 0 0 0 0 0 0 0 0 0 0 0 0 29 0 0 0 0 0 0 57 4 0 31 0 0 18 6 0 8 1 5 6 2 4 6 19 150 0 0 1 0 14 50 10 4 18 0 0 10 52 0 14 0 0 0 0 0 138 0 48 29 0 0 6 23 50 0 0 0 0 0 0 0 0 0 0 0 0 0 0 0 0 0 0 0 0 82 0 0 3 0 0 0 0 0 0 0 0 0 0 0 6 0 0 0 0 0 0 0 0 0 0 0 0 0 0 0 0 0 0 0 0 0 0 0 0 0 0 0 0 0 0 0 0 0 0 0 0 0 0 0 0 0 0 0 0 0 0 0 0 0 0 0 0 0 0 0 0 0 0 0 0 0 0 0 0 0 0 0 0 0 0 0 0 0 0 0 178 0 0 0 0 0 56 0 298 0 0 0 0 0 0 0 0 0 0 0 0 0 546 0 0 0 0 0 548 0 0 26 0 0 0 0 0 0 0 0 0 0 0 0 0 0 0 0 0 0 0 0 0 0 0 0 0 0 0 0 0 0 0 0 0 0 9 0 0 0 0 6 0 0 6 0 0 0 279 0 0 0 0 50 16 0 500 0 0 0 0 0 37 0 0 0 0 249 0 40 0 0 0 135 0 0 0 48 0 0 0 0 0 482 0 0 0 0 0 0 0 0 0 0 0 0 0 0 0 0 0 0 0 0 0 0 0 0 0 0 0 0 0 0 0 0 0 0 0 0 0 0 0 0 2 19 24 0 0 0 0 3 0 0 0 0 0 0 0 0 0 0 0 0 55 0 0 0 0 0 0 0 0 0 0 0 0 0 0 0 0 0 0 0 0 0 0 0 0 0 0 0 1 0 0 0 0 0 8 0 0 6 0 0 6 0 0 1 0 6 0 0 2 0 0 1 0 0 10 0 0 0 0 0 0 0 0 3 0 0 4 0 0 0 0 0 0 0 0 0 0 0 0 0 0 0 0 21 2 0 0 0 391 0 0 0 0 0 0 0 0 0 0 0 0 0 0 342 0 0 0 4 0 0 0 0 0 0 0 0 0 0 0 0 0 0 0 0 0 0 0 49 0 0 0 0 0 0 0 3 0 0 0 0 0 0 0 0 0 0 0 0 0 0 0 0 0 0 0 0 0 0 0 0 0 0 0 0 0 0 0 0 0 0 0 0 0 0 0 0 0 0 0 0 0 0 0 0 0 0 0 0 0 0 0 0 0 0 0 0 0 0 0 0 0 0 0 0 0 0 0 0 0 8 0 0 0 0 0 0 0 6 0 0 0 0 0 0 0 0 0 0 0 0 0 0 0 0 0 0 0 0 0 0 0 0 0 0 0 0 0 14 34 0 0 0 1 0 0 0 0 0 0 0 0 0 0 0 0 0 0 0 0 0 0 0 0 0 77 15 0 1 0 0 1 0 0 0 0 0 0 0 201 95 0 0 12 0 0 0 0 0 0 0 0 10 0 0 0 0 0 0 0 0 0 0 0 0 0 0 0 0 0 0 0 0 0 0 0 0 0 0 0 0 0 0 0 0 0 0 0 0 0 0 1 0 0 0 0 0 0 0 0 0 0 0 0 0 0 0 0 0 0 0 0 0 0 0 0 0 0 0 0 0 0 0 0 0 0 2 0 0 0 0 0 0 0 0 0 0 0 0 0 0 0 0 0 0 0 0 0 0 0 0 0 0 0 0 30 0 0 8 6 0 0 0 0 0 0 0 0 0 0 0 0 0 0 0 0 0 0 0 0 0 0 0 0 0 0 0 0 0 0 0 0 0 0 0 0 0 0 0 0 0 0 0 0 0 8 0 0 0 0 0 0 1 0 0 0 8 7 1 0 0 0 0 0 0 10 541 0 0 0 0 22 0 0 0 45 0 0 0 1 0 0 0 0 0 0 0 0 0 0 0 0 0 0 0 0 0 0 0 0 0 0 0 0 0 0 0 0 0 0 0 0 0 0 0 0 0 0 0 0 0 0 0 0 0 0 0 0 0 0 0 0 0 0 0 0 0 0 0 0 0 0 0 0 0 0 0 0 0 0 0 0 0 0 0 0 0 26 432 0 0 0 0 0 0 0 13 0 0 0 0 0 0 0 0 0 0 0 0 0 0 8 30 0 0 11 0 0 24 157 9 0 207 0 0 0 0 0 0 0 0 0 0 0 0 0 0 0 0 0 0 0 0 0 0 0 0 0 90 0 0 0 0 18 0 0 0 0 0 0 0 0 0 0 0 0 0 0 0 0 0 0 0 12 0 0 30 0 0 2 0 0 2 0 0 0 0 0 0 0 0 2 0 3 0 0 0 0 0 0 0 0 0 0 0 0 0 0 0 0 0 14 0 0 0 0 0 497 0 59 0 0 0 0 0 0 0 0 0 0 0 0 0 0 0 0 0 0 0 394 0 0 0 0 0 0 0 0 0 0 0 0 0 0 0 0 0 0 0 0 0 0 0 0 0 0 0 0 0 0 0 0 0 0 0 0 0 0 0 0 0 0 0 0 0 0 0 0 0 0 0 0 0 0 0 0 0 0 0 0 0 0 0 0 0 0 0 0 0 0 0 0 0 2 0 0 0 0 0 0 0 0 0 0 0 0 0 0 0 0 0 0 0 0 0 0 0 0 0 0 0 0 0 0 0 0 0 0 0 0 0 0 0 0 0 0 0 0 0 0 0 0 0 0 0 0 0 0 0 0 0 0 0 0 0 0 0 0 0 0 0 0 0 0 0 0 0 0 0 0 0 0 0 0 0 0 0 0 0 0 0 0 0 0 0 0 0 0 0 0 0 0 0 0 0 0 0 0 0 0 0 0 0 0 0 0 0 0 0 0 0 0 0 0 0 0 0 0 0 0 0 0 0 0 0 0 0 0 0 0 0 0 0 0 0 0 0 0 0 0 0 0 0 0 0 0 0 0 0 0 0 0 0 0 0 0 0 0 0 0 0 0 0 0 0 0 0 0 0 0 0 0 0 0 0 0 0 0 0 0 0 0 0 0 0 0 0 3 0 0 0 0 0 0 0 0 0 0 0 0 0 4 0 0 0 0 0 0 0 0 0 0 0 0 0 0 0 0 0 0 0 0 0 0 0 0 0 2 0 0 0 0 0 0 0 0 225 429 0 0 0 0 0 0 0 0 0 0 0 0 0 0 0 0 0 0 0 0 0 0 0 0 0 0 0 0 0 0 0 0 0 0 0 0 0 0 0 0 0 0 0 0 0 0 0 0 0 0 1 18 0 0 0 0 0 0 0 0 0 0 0 0 0 0 0 0 0 0 0 0 0 0 0 0 0 0 0 0 0 0 0 0 0 0 0 0 0 0 0 0 0 0 0 0 0 0 0 0 0 0 0 0 0 0 0 0 0 0 0 0 0 0 0 825 0 1 0 0 0 0 0 8 0 0 0 0 0 0 8 0 0 0 0 0 0 0 0 0 0 0 0 0 0 0 0 0 0 0 0 0 0 0 0 0 0 0 12 0 4 0 0 0 0 0 6 0 0 0 0 0 0 0 0 1 0 0 1 2 1 0 0 0 5 9 0 0 0 0 0 0 0 0 0 0 0 0 0 0 0 0 0 0 0 0 0 0 0 0 0 0 0 0 0 0 0 0 0 0 0 0 0 0 0 0 0 0 0 0 0 0 0 0 0 0 0 0 0 0 0 0 0 0 0 0 0 0 0 0 0 0 
Printing Sanity2
Heartbeat CPU 0 instructions: 60000002 cycles: 35063229 heartbeat IPC: 0.490893 cumulative IPC: 0.490893 (Simulation time: 0 hr 4 min 45 sec) 
*** Reached end of trace for Core: 0 Repeating trace: traces/spec2k17/srv_35.champsimtrace.xz
Heartbeat CPU 0 instructions: 70000001 cycles: 54962616 heartbeat IPC: 0.502528 cumulative IPC: 0.496642 (Simulation time: 0 hr 6 min 0 sec) 
Heartbeat CPU 0 instructions: 80000002 cycles: 75099795 heartbeat IPC: 0.496594 cumulative IPC: 0.496626 (Simulation time: 0 hr 7 min 18 sec) 
Heartbeat CPU 0 instructions: 90000003 cycles: 95268948 heartbeat IPC: 0.495807 cumulative IPC: 0.496421 (Simulation time: 0 hr 8 min 37 sec) 
*** Reached end of trace for Core: 0 Repeating trace: traces/spec2k17/srv_35.champsimtrace.xz
Heartbeat CPU 0 instructions: 100000001 cycles: 115149475 heartbeat IPC: 0.503005 cumulative IPC: 0.497724 (Simulation time: 0 hr 9 min 50 sec) 
Heartbeat CPU 0 instructions: 110000000 cycles: 135301927 heartbeat IPC: 0.496217 cumulative IPC: 0.497472 (Simulation time: 0 hr 11 min 7 sec) 
Heartbeat CPU 0 instructions: 120000000 cycles: 155445229 heartbeat IPC: 0.496443 cumulative IPC: 0.497325 (Simulation time: 0 hr 12 min 28 sec) 
*** Reached end of trace for Core: 0 Repeating trace: traces/spec2k17/srv_35.champsimtrace.xz
Heartbeat CPU 0 instructions: 130000001 cycles: 175318014 heartbeat IPC: 0.503201 cumulative IPC: 0.498052 (Simulation time: 0 hr 13 min 48 sec) 
Heartbeat CPU 0 instructions: 140000000 cycles: 195489362 heartbeat IPC: 0.495753 cumulative IPC: 0.497795 (Simulation time: 0 hr 15 min 6 sec) 
Heartbeat CPU 0 instructions: 150000002 cycles: 215542844 heartbeat IPC: 0.498667 cumulative IPC: 0.497882 (Simulation time: 0 hr 16 min 25 sec) 
Heartbeat CPU 0 instructions: 160000001 cycles: 235490096 heartbeat IPC: 0.501322 cumulative IPC: 0.498193 (Simulation time: 0 hr 17 min 47 sec) 
*** Reached end of trace for Core: 0 Repeating trace: traces/spec2k17/srv_35.champsimtrace.xz
Heartbeat CPU 0 instructions: 170000000 cycles: 255345389 heartbeat IPC: 0.503644 cumulative IPC: 0.498643 (Simulation time: 0 hr 19 min 7 sec) 
Heartbeat CPU 0 instructions: 180000000 cycles: 275639154 heartbeat IPC: 0.492762 cumulative IPC: 0.498186 (Simulation time: 0 hr 20 min 25 sec) 
Heartbeat CPU 0 instructions: 190000003 cycles: 295607203 heartbeat IPC: 0.5008 cumulative IPC: 0.498371 (Simulation time: 0 hr 21 min 43 sec) 
*** Reached end of trace for Core: 0 Repeating trace: traces/spec2k17/srv_35.champsimtrace.xz
Heartbeat CPU 0 instructions: 200000001 cycles: 315441891 heartbeat IPC: 0.504167 cumulative IPC: 0.498754 (Simulation time: 0 hr 23 min 1 sec) 
Heartbeat CPU 0 instructions: 210000003 cycles: 335513631 heartbeat IPC: 0.498213 cumulative IPC: 0.49872 (Simulation time: 0 hr 24 min 19 sec) 
Heartbeat CPU 0 instructions: 220000000 cycles: 355572772 heartbeat IPC: 0.498526 cumulative IPC: 0.498708 (Simulation time: 0 hr 25 min 35 sec) 
*** Reached end of trace for Core: 0 Repeating trace: traces/spec2k17/srv_35.champsimtrace.xz
Heartbeat CPU 0 instructions: 230000000 cycles: 375434419 heartbeat IPC: 0.503483 cumulative IPC: 0.498971 (Simulation time: 0 hr 26 min 53 sec) 
Heartbeat CPU 0 instructions: 240000001 cycles: 395518472 heartbeat IPC: 0.497908 cumulative IPC: 0.498915 (Simulation time: 0 hr 28 min 13 sec) 
Heartbeat CPU 0 instructions: 250000001 cycles: 415665665 heartbeat IPC: 0.496347 cumulative IPC: 0.498786 (Simulation time: 0 hr 29 min 33 sec) 
Finished CPU 0 instructions: 200000001 cycles: 400973479 cumulative IPC: 0.498786 (Simulation time: 0 hr 29 min 33 sec) 

ChampSim completed all CPUs

Region of Interest Statistics

CPU 0 cumulative IPC: 0.498786 instructions: 200000001 cycles: 400973479
ITLB TOTAL     ACCESS:   33787533  HIT:   32249222  MISS:    1538311  HIT %:    95.4471  MISS %:     4.5529   MPKI: 7.69155
ITLB LOAD TRANSLATION ACCESS:   33787533  HIT:   32249222  MISS:    1538311  HIT %:    95.4471  MISS %:     4.5529   MPKI: 7.69155
ITLB PREFETCH  REQUESTED:          0  ISSUED:          0  USEFUL:          0  USELESS:          0
ITLB USEFUL LOAD PREFETCHES:          0 PREFETCH ISSUED TO LOWER LEVEL:          0  ACCURACY: -nan
ITLB TIMELY PREFETCHES:          0 LATE PREFETCHES: 0 DROPPED PREFETCHES: 0
ITLB PREFETCHES SAME FILL-ORIGIN LEVEL: 0 DIFFERENT FILL-ORIGIN LEVEL: 0
ITLB AVERAGE MISS LATENCY: 9.25445 cycles
ITLB RQ	ACCESS:   40662009	FORWARD:          0	MERGED:    6379821	TO_CACHE:   34282188

DTLB TOTAL     ACCESS:   39916745  HIT:   38385740  MISS:    1531005  HIT %:    96.1645  MISS %:     3.8355   MPKI: 7.65502
DTLB LOAD TRANSLATION ACCESS:   39916745  HIT:   38385740  MISS:    1531005  HIT %:    96.1645  MISS %:     3.8355   MPKI: 7.65502
DTLB PREFETCH  REQUESTED:          0  ISSUED:          0  USEFUL:          0  USELESS:          0
DTLB USEFUL LOAD PREFETCHES:          0 PREFETCH ISSUED TO LOWER LEVEL:          0  ACCURACY: -nan
DTLB TIMELY PREFETCHES:          0 LATE PREFETCHES: 0 DROPPED PREFETCHES: 0
DTLB PREFETCHES SAME FILL-ORIGIN LEVEL: 0 DIFFERENT FILL-ORIGIN LEVEL: 0
DTLB AVERAGE MISS LATENCY: 14.9325 cycles
DTLB RQ	ACCESS:   61041463	FORWARD:          0	MERGED:   20726689	TO_CACHE:   40314774

STLB TOTAL     ACCESS:    4447465  HIT:    4369269  MISS:      78196  HIT %:    98.2418  MISS %:    1.75822   MPKI: 0.39098
STLB LOAD TRANSLATION ACCESS:    3069316  HIT:    2991275  MISS:      78041  HIT %:    97.4574  MISS %:    2.54262   MPKI: 0.390205
STLB TRANSLATION FROM L1D PREFETCHER ACCESS:    1378149  HIT:    1377994  MISS:        155  HIT %:    99.9888  MISS %:   0.011247   MPKI: 0.000775
STLB PREFETCH  REQUESTED:          0  ISSUED:          0  USEFUL:        155  USELESS:          0
STLB USEFUL LOAD PREFETCHES:        155 PREFETCH ISSUED TO LOWER LEVEL:          0  ACCURACY: inf
STLB TIMELY PREFETCHES:        155 LATE PREFETCHES: 0 DROPPED PREFETCHES: 0
STLB PREFETCHES SAME FILL-ORIGIN LEVEL: 0 DIFFERENT FILL-ORIGIN LEVEL: 0
STLB AVERAGE MISS LATENCY: 121.066 cycles
STLB RQ	ACCESS:    4966175	FORWARD:          0	MERGED:     518710	TO_CACHE:    4447465

STLB Hit, L1D data hit: 0
STLB Hit, L2C data hit: 0
STLB Hit, LLC data hit: 0
STLB Hit, LLC data miss: 0
STLB STLB hints to L2: 0
L1D TOTAL     ACCESS:   51096016  HIT:   44318025  MISS:    6777991  HIT %:    86.7348  MISS %:    13.2652   MPKI: 33.89
L1D LOAD      ACCESS:   26636855  HIT:   23559498  MISS:    3077357  HIT %:     88.447  MISS %:     11.553   MPKI: 15.3868
L1D RFO       ACCESS:   22586531  HIT:   18909137  MISS:    3677394  HIT %:    83.7186  MISS %:    16.2814   MPKI: 18.387
L1D PREFETCH  ACCESS:    1872630  HIT:    1849390  MISS:      23240  HIT %:     98.759  MISS %:    1.24104   MPKI: 0.1162
AGUS PREFETCH L1 MISS: 0
L1D PREFETCH  REQUESTED:    3864227  ISSUED:    3864227  USEFUL:       6044  USELESS:      17182
L1D USEFUL LOAD PREFETCHES:       6044 PREFETCH ISSUED TO LOWER LEVEL:      31404  ACCURACY: 19.246
L1D TIMELY PREFETCHES:       6044 LATE PREFETCHES: 1 DROPPED PREFETCHES: 0
L1D PREFETCHES SAME FILL-ORIGIN LEVEL: 31404 DIFFERENT FILL-ORIGIN LEVEL: 0
L1D AVERAGE MISS LATENCY: 266419 cycles
L1D RQ	ACCESS:   45221268	FORWARD:          0	MERGED:   17832858	TO_CACHE:   27107320
L1D WQ	ACCESS:   34133601	FORWARD:     284665	MERGED:     199458	TO_CACHE:   33934143
L1D PQ	ACCESS:    1967368	FORWARD:          0	MERGED:      66934	TO_CACHE:    1896859

L1D UNIQUE REGIONS ACCESSED: 0
L1D REGIONS CONFLICTS: 0
L1D Cross Page Prefetch Requests: 36869
L1D Same Page Prefetch Requests: 1930499
L1D ROI Sum of L1D PQ occupancy: 23233785
L1D PREFETCHES PUSHED FROM L2C: 0
L1I TOTAL     ACCESS:   38007313  HIT:   28901853  MISS:    9105460  HIT %:    76.0429  MISS %:    23.9571   MPKI: 45.5273
L1I LOAD      ACCESS:   38007313  HIT:   28901853  MISS:    9105460  HIT %:    76.0429  MISS %:    23.9571   MPKI: 45.5273
L1I PREFETCH  REQUESTED:          0  ISSUED:          0  USEFUL:          0  USELESS:          0
L1I USEFUL LOAD PREFETCHES:          0 PREFETCH ISSUED TO LOWER LEVEL:          0  ACCURACY: -nan
L1I TIMELY PREFETCHES:          0 LATE PREFETCHES: 0 DROPPED PREFETCHES: 0
L1I PREFETCHES SAME FILL-ORIGIN LEVEL: 0 DIFFERENT FILL-ORIGIN LEVEL: 0
L1I AVERAGE MISS LATENCY: 16.8202 cycles
L1I RQ	ACCESS:   59014531	FORWARD:          0	MERGED:   18352522	TO_CACHE:   40662009

BTB TOTAL     ACCESS:   25730477  HIT:   24146041  MISS:    1584436  HIT %:    93.8422  MISS %:    6.15782   MPKI: 7.92218
BTB BRANCH_DIRECT_JUMP	ACCESS:    1658704  HIT:    1646125  MISS:      12579
BTB BRANCH_INDIRECT	ACCESS:    9991428  HIT:    9459134  MISS:     532294
BTB BRANCH_CONDITIONAL	ACCESS:    7236367  HIT:    7219065  MISS:      17302
BTB BRANCH_DIRECT_CALL	ACCESS:    2824054  HIT:    2784655  MISS:      39399
BTB BRANCH_INDIRECT_CALL	ACCESS:     597965  HIT:     486107  MISS:     111858
BTB BRANCH_RETURN	ACCESS:    3421959  HIT:    2550955  MISS:     871004
BTB BRANCH_OTHER ACCESS:          0  HIT:          0  MISS:          0

L2C TOTAL     ACCESS:   20304326  HIT:   13717527  MISS:    6586799  HIT %:    67.5596  MISS %:    32.4404   MPKI: 32.934
L2C LOAD      ACCESS:   12182580  HIT:    9306835  MISS:    2875745  HIT %:    76.3946  MISS %:    23.6054   MPKI: 14.3787
L2C DATA LOAD MPKI: 11.5421
L2C INSTRUCTION LOAD MPKI: 2.83662
L2C RFO       ACCESS:    3669227  HIT:     175375  MISS:    3493852  HIT %:    4.77962  MISS %:    95.2204   MPKI: 17.4693
L2C PREFETCH  ACCESS:      31404  HIT:       4253  MISS:      27151  HIT %:    13.5429  MISS %:    86.4571   MPKI: 0.135755
AGUS PREFETCH L1 MISS: 0
L2C DATA PREFETCH MPKI: 0.135755
L2C INSTRUCTION PREFETCH MPKI: 0
L2C WRITEBACK ACCESS:    4330237  HIT:    4184676  MISS:     145561  HIT %:    96.6385  MISS %:     3.3615   MPKI: 0.727805
L2C LOAD TRANSLATION ACCESS:      90681  HIT:      46281  MISS:      44400  HIT %:    51.0372  MISS %:    48.9628   MPKI: 0.222
L2C TRANSLATION FROM L1D PREFETCHER ACCESS:        197  HIT:        107  MISS:         90  HIT %:    54.3147  MISS %:    45.6853   MPKI: 0.00045
L2C PREFETCH  REQUESTED:          0  ISSUED:          0  USEFUL:       2775  USELESS:      24436
L2C USEFUL LOAD PREFETCHES:       2775 PREFETCH ISSUED TO LOWER LEVEL:      27151  ACCURACY: 10.2206
L2C TIMELY PREFETCHES:       2775 LATE PREFETCHES: 0 DROPPED PREFETCHES: 0
L2C PREFETCHES SAME FILL-ORIGIN LEVEL: 0 DIFFERENT FILL-ORIGIN LEVEL: 0
L2C AVERAGE MISS LATENCY: 157.116 cycles
L2C RQ	ACCESS:   15942924	FORWARD:          0	MERGED:          0	TO_CACHE:   15942685
L2C WQ	ACCESS:    4330238	FORWARD:        239	MERGED:          0	TO_CACHE:    4330238
L2C PQ	ACCESS:      31404	FORWARD:          0	MERGED:          0	TO_CACHE:      31404

L2C Instructions Evicting Data 517492
L2C Translations Evicting Data 40774
L2C Data Evicting Data 5284919
L2C Instructions Evicting Instructions 45996
L2C Translations Evicting Instructions 3454
L2C Data Evicting Instructions 504832
L2C Instructions Evicting Translations 3837
L2C Translations Evicting Translations 262
L2C Data Evicting Translations 39672
L2C Dense regions hint from L2: 0
PSCL5 TOTAL     ACCESS:      78196  HIT:      78196  MISS:          0  HIT %:        100  MISS %:          0   MPKI: 0
PSCL5 LOAD TRANSLATION ACCESS:      78041  HIT:      78041  MISS:          0  HIT %:        100  MISS %:          0   MPKI: 0
PSCL5 TRANSLATION FROM L1D PREFETCHER ACCESS:        155  HIT:        155  MISS:          0  HIT %:        100  MISS %:          0   MPKI: 0
PSCL5 PREFETCH  REQUESTED:          0  ISSUED:          0  USEFUL:          0  USELESS:          0
PSCL5 USEFUL LOAD PREFETCHES:          0 PREFETCH ISSUED TO LOWER LEVEL:          0  ACCURACY: -nan
PSCL5 TIMELY PREFETCHES:          0 LATE PREFETCHES: 0 DROPPED PREFETCHES: 0
PSCL5 PREFETCHES SAME FILL-ORIGIN LEVEL: 0 DIFFERENT FILL-ORIGIN LEVEL: 0

PSCL4 TOTAL     ACCESS:      76489  HIT:      76330  MISS:        159  HIT %:    99.7921  MISS %:   0.207873   MPKI: 0.000795
PSCL4 LOAD TRANSLATION ACCESS:      76340  HIT:      76181  MISS:        159  HIT %:    99.7917  MISS %:   0.208279   MPKI: 0.000795
PSCL4 TRANSLATION FROM L1D PREFETCHER ACCESS:        149  HIT:        149  MISS:          0  HIT %:        100  MISS %:          0   MPKI: 0
PSCL4 PREFETCH  REQUESTED:          0  ISSUED:          0  USEFUL:          0  USELESS:          0
PSCL4 USEFUL LOAD PREFETCHES:          0 PREFETCH ISSUED TO LOWER LEVEL:          0  ACCURACY: -nan
PSCL4 TIMELY PREFETCHES:          0 LATE PREFETCHES: 0 DROPPED PREFETCHES: 0
PSCL4 PREFETCHES SAME FILL-ORIGIN LEVEL: 0 DIFFERENT FILL-ORIGIN LEVEL: 0

PSCL3 TOTAL     ACCESS:      70132  HIT:      68926  MISS:       1206  HIT %:    98.2804  MISS %:    1.71961   MPKI: 0.00603
PSCL3 LOAD TRANSLATION ACCESS:      69977  HIT:      68771  MISS:       1206  HIT %:    98.2766  MISS %:    1.72342   MPKI: 0.00603
PSCL3 TRANSLATION FROM L1D PREFETCHER ACCESS:        155  HIT:        155  MISS:          0  HIT %:        100  MISS %:          0   MPKI: 0
PSCL3 PREFETCH  REQUESTED:          0  ISSUED:          0  USEFUL:          0  USELESS:          0
PSCL3 USEFUL LOAD PREFETCHES:          0 PREFETCH ISSUED TO LOWER LEVEL:          0  ACCURACY: -nan
PSCL3 TIMELY PREFETCHES:          0 LATE PREFETCHES: 0 DROPPED PREFETCHES: 0
PSCL3 PREFETCHES SAME FILL-ORIGIN LEVEL: 0 DIFFERENT FILL-ORIGIN LEVEL: 0

PSCL2 TOTAL     ACCESS:      78196  HIT:      66879  MISS:      11317  HIT %:    85.5274  MISS %:    14.4726   MPKI: 0.056585
PSCL2 LOAD TRANSLATION ACCESS:      78083  HIT:      66766  MISS:      11317  HIT %:    85.5064  MISS %:    14.4936   MPKI: 0.056585
PSCL2 TRANSLATION FROM L1D PREFETCHER ACCESS:        113  HIT:        113  MISS:          0  HIT %:        100  MISS %:          0   MPKI: 0
PSCL2 PREFETCH  REQUESTED:          0  ISSUED:          0  USEFUL:          0  USELESS:          0
PSCL2 USEFUL LOAD PREFETCHES:          0 PREFETCH ISSUED TO LOWER LEVEL:          0  ACCURACY: -nan
PSCL2 TIMELY PREFETCHES:          0 LATE PREFETCHES: 0 DROPPED PREFETCHES: 0
PSCL2 PREFETCHES SAME FILL-ORIGIN LEVEL: 0 DIFFERENT FILL-ORIGIN LEVEL: 0

LLC TOTAL     ACCESS:   10441691  HIT:    4202755  MISS:    6238936  HIT %:    40.2498  MISS %:    59.7502   MPKI: 31.1947
LLC LOAD      ACCESS:    2875739  HIT:    1638381  MISS:    1237358  HIT %:    56.9725  MISS %:    43.0275   MPKI: 6.18679
LLC RFO       ACCESS:    3493839  HIT:     982172  MISS:    2511667  HIT %:    28.1115  MISS %:    71.8885   MPKI: 12.5583
LLC PREFETCH  ACCESS:      27151  HIT:      15185  MISS:      11966  HIT %:     55.928  MISS %:     44.072   MPKI: 0.05983
AGUS PREFETCH L1 MISS: 0
LLC WRITEBACK ACCESS:    4000472  HIT:    1551878  MISS:    2448594  HIT %:    38.7924  MISS %:    61.2076   MPKI: 12.243
LLC LOAD TRANSLATION ACCESS:      44400  HIT:      15091  MISS:      29309  HIT %:    33.9887  MISS %:    66.0113   MPKI: 0.146545
LLC TRANSLATION FROM L1D PREFETCHER ACCESS:         90  HIT:         48  MISS:         42  HIT %:    53.3333  MISS %:    46.6667   MPKI: 0.00021
LLC PREFETCH  REQUESTED:          0  ISSUED:          0  USEFUL:        261  USELESS:      11744
LLC USEFUL LOAD PREFETCHES:        261 PREFETCH ISSUED TO LOWER LEVEL:      11966  ACCURACY: 2.18118
LLC TIMELY PREFETCHES:        261 LATE PREFETCHES: 0 DROPPED PREFETCHES: 0
LLC PREFETCHES SAME FILL-ORIGIN LEVEL: 0 DIFFERENT FILL-ORIGIN LEVEL: 0
LLC AVERAGE MISS LATENCY: 134.903 cycles
LLC RQ	ACCESS:    6414087	FORWARD:          0	MERGED:          0	TO_CACHE:    6414068
LLC WQ	ACCESS:    4000472	FORWARD:         19	MERGED:          0	TO_CACHE:    4000472
LLC PQ	ACCESS:      27151	FORWARD:          0	MERGED:          0	TO_CACHE:      27151

LLC Dense regions hint to LLC: 0

RAW hits: 2498250
Loads Generated: 47719518
Loads sent to L1D: 45221268
Stores Generated: 34133587
Stores sent to L1D: 34133601
Major fault: 0 Minor fault: 9063
Allocated PAGES: 9063
ucb ended
-----------------------------------------------------------------------------------------------------------------------------------------------------------------------------------------------------
Offsets elements: -24198 24202 -3 4 -1 2 1 -288223780699134316 18880336 -19491420 -6 -1465995993799 1465995993799 6 500461 -500466 -1465995994186 408 1465995993777 500467 19491426 18990962 -51010207 -1465964475030 1465996308369 -31833340 32019132 -1465996494204 -332 1466015485608 -1466015483814 1465964464069 -1465964465558 -1730 1730 1466015485303 -1466015485605 -4 1465996605295 -1465996605295 1794 1465996603501 -1465996604963 1465964465531 -1465964467288 1425 -1465964465531 1465996481222 19004388 -1466015483812 1466015483811 -18972640 18972641 -18991073 -185795 -1465996308744 1465996308751 -1465996308724 1465996587447 17806 288223780709529729 -10419615 -2200619201324 2200619201347 -72119 72119 5 87124 9164 -9164 -15033 15032 9166 -12750294 -2200606350957 2200619092086 9163 -12741134 12741134 -2200619182016 2200619182017 -12741131 -5 8281570 -8281571 12750300 2200619191180 -9161 -2 -12741135 12750295 -2200619190921 2200606440626 12763316 -2200619097218 2200619097220 -37216 24187 13029 10419340 -2200629472974 2200619077821 -24187 24188 13031 14 -20 19 -13051 13026 22 -13046 13033 -13029 13021 20 -17 -4986 -2200619092278 2200619092280 -2200619199154 2200619199154 -179156 171110 13043 8 13034 -13033 -13028 13028 -2200619097221 2200619097236 -25 -62657 49633 13045 -13045 -2200619120966 2200619120959 -2200619097216 -23978 2200614636860 14868626 -14868626 4458972 10409654 4471305 -12397 12398 -12334 12331 -2200619065711 2200614594396 14868639 -14868639 -10361335 -4507304 4507016 -35700 -3744231611 3744231611 -4471318 4471319 36011 -48341 12332 -12332 25362 -13030 13027 2200619071857 12333 -25367 25384 -25385 25365 17 -2200619121790 2200619121790 -13049 13054 -27 -25359 25364 -2200619097222 -2200619120979 2200619120980 -7 -2200619108742 2200619108745 -13043 -12338 12334 -12333 25367 -288223780699430832 288223780699430830 -9 25387 -25387 12341 3 -2200619095599 2200619120964 7 10 -2200619120938 2200619120929 -2200619120965 2200619107927 13038 -13037 13035 12329 13052 -25384 -25386 25381 -25382 25385 -18 -25364 -2200619095598 -12331 -2200619093746 2200619106075 -2200619108736 2200619096407 25386 -13057 -12328 48343 -48344 12327 -12327 -12326 25382 -25383 25379 -19 -25362 12323 -12325 25363 25368 -25361 25356 -25358 25377 -13054 -12324 -25365 25383 -15 13 -14 -2200619120961 2200619120979 13056 -2200619204006 2200619204001 -11 -25357 25375 -25374 -2200619121791 2200619121784 -2200619120939 2200619120941 -2200619121788 2200619108736 13049 -25378 -37311 10447665 -10410354 25378 -25376 25374 2200619203990 11 -25369 -4985 2200619092278 -179149 121478 49618 -12323 12322 -12322 -4993 2200619178779 4995 -184137 121471 37303 48316 24 25357 -25363 -35996 -49594 37272 20376 -155254 134877 25359 -25356 -35997 -147200 134875 -35995 -2200619095747 162 2200619095584 -48317 12315 -2200619108070 2200619108067 -188385 -2200618919662 2200619108049 -12318 -85573 -2200619141430 2200619191001 -12314 12318 -12317 -2200619095585 12313 36003 -36001 -2200619108048 2200619095732 36004 -2200619108073 2200619108072 -2200619108069 2200618973686 -2200618974343 2200619120619 -11890 11890 11889 -11889 -11893 11893 -2200619119939 -2200619108050 2200619095733 24208 -24209 24207 -36064 36067 24107 -2200619227001 2200619227001 -24107 24209 48317 -24109 -49852 37954 11896 -36002 11895 -11895 -11896 -49567 61464 -61465 49570 -49569 61461 -10395173 -2200619077802 2200619077802 11898 -2200619120620 2200619120620 -25643 37953 11891 -11891 -147196 147196 20377 -20377 -37310 57686 10389979 10410355 -10410356 -37272 -97600 134873 37963 -147194 134871 49574 -147192 147192 -12321 4981 -179148 57677 -20376 -2200619071902 -106876 -179158 -2200619019998 2200619178780 48340 -48342 -20374 -11858 32234 -2200619092200 2200618913042 207098 -648958 562790 37849 -37853 37851 -2200619096409 2200619121773 -63213 37852 12317 -12319 -48340 -11857 60198 -207122 158780 20378 -158776 10566258 -10566258 171091 -70696 -38464 -61936 100402 10465862 1913 -10409397 -158787 207127 -158783 -2200619027247 2200619186030 12314 -171102 100407 10467775 -10409398 -2200619095832 2200618937047 158787 -158782 2200619186029 25361 -12315 -207095 24179 182916 -36004 -171086 158773 10407483 -2200629503697 2200629505724 -10397199 -12312 10568298 -2200629505339 2200629505339 -2022 -10395172 2200629475001 -10397198 10398033 -10398034 -70693 70694 -171104 10568182 -10421253 24173 -24175 2200619053634 2200629473275 -11565845 1146204 -2200629503894 2200619084554 -2200619053634 2200629472974 -10395166 -2200619108828 2200629504297 -10419643 -2200619084554 614 2200629505302 -2200629505302 10397194 -10409507 -158786 10568290 -10397195 -12309 -2200619095835 2200619095833 158788 158778 241 2200619107902 -171097 158786 -2200619095592 2200619095593 -158773 158774 -37312 -10410353 -48316 -85628 85628 48341 10410357 -10362041 -37271 -97608 134879 12304 36012 -36011 -147187 147184 -12308 10447616 -10398058 -147183 147182 -12307 -37303 37301 27941 -48318 -20378 -158774 207090 -85590 -97596 134869 11905 -159078 109226 -109224 134867 -11906 -49559 49560 -147171 147171 -12302 -2200619094976 2200619058962 -2200619107936 -82959 2200619178593 85629 10362036 48318 -48319 -27942 -179150 -2200619143919 2200619107901 -2200619058970 3583141 2200615488857 -13026 13024 22986 -22979 -25339 -158772 121532 37241 -24207 25331 -13032 -12301 12301 10382156 -10382154 -12300 25345 -25346 -22995 22988 -2200619143915 2200619120946 -13048 -25330 25328 -25329 25338 -4963 -8076 -171073 37295 25330 22971 -22971 -25347 25347 22972 -22967 22967 -25348 25350 -2200619088074 2200619088079 -25352 -62638 -72465807171 72465869812 -16 25329 -25326 -2200619071861 2200619084159 13046 -25343 25344 9 -2200619121766 2200619121755 -25350 12298 13048 25348 -25353 25351 -62991 -2200619056106 2200619119095 -2200619121755 2200619121767 -12 -2200619121743 2200619058766 62987 -13053 13055 -10 -2200619120913 2200619120893 -2128153251929 2200619121761 -62977 62992 -62992 62977 49941 -49942 63000 -62999 62995 -62997 62994 -62994 49943 -49943 49938 -13052 49942 49939 62973 -62969 -2200619034218 2200619097190 -62974 49937 -49935 91104 -3744272732 3744272732 -91103 -3744181634 3739760288 -3754628927 4471278 -3744231566 3744231565 -49937 -2200619058199 -3739760389 3754629015 -3754629015 3739760389 4471267 -3744231655 3744231659 13059 -21 -2200619121760 2200619121760 -13055 -13050 -2200619107899 -810 13057 15 -4971 2200619191073 -13056 13058 -2200619120908 2200619107861 -2200619120909 2200619120915 -2200619120915 2200619107858 12 13051 -13059 2200619120909 -13047 13030 23 -62651 -2200619058265 2200619120917 -2200619108705 2200619121762 -2200619120951 2200619120935 -13040 13036 -8 -12784571 12771542 -4956 -2200619199153 2200619204122 2200619107864 13047 2200619121754 13037 -50976 37942 -37942 56959 42315 -45345 45343 -45343 45344 45345 -61332 37941 -37941 37943 -13027 -49612 49614 10398050 -10398050 -2200619108722 2200619108725 10397190 -10397190 10397073 -10397076 -24170 10421350 -10397178 10395169 2200619077806 -24172 24174 -24174 24175 -12330 25391 -2200619121785 2200619121783 -37306 -72465807161 72465856798 -2200619120980 2200619120974 -2200619121783 13053 -2200619120981 2200619120973 -2200619121773 2200619121777 -12763325 12750287 37216 2200619097223 -12702832 -38302 38302 12711996 -12750289 12741125 -1207806 1216969 -24167 15005 9165 -12750299 -9166 -19176860 -1465996308359 1465996308360 -1465996308745 1465996308745 185851 -185850 19176866 -18991015 -1465996494188 1465996308337 185845 18991018 -1466015485237 1465964475026 32019136 -182593 -1465996311611 305 1489 1466015483814 -1466015485304 1465964465558 1429 -1465964465863 -1757 1465996482646 -1465996479427 -1466015483811 1466015483812 -32028673 31846078 -1465996311944 1465996481225 -169280 201020 -1465996512950 96292 -96287 96287 -9084 -15113 15112 -12741108 12750192 -9083 9082 -2200619101248 2200619101249 -12741117 -2200606440982 2200619191182 -12750194 12741113 -15112 -2200619166984 2200619182097 9083 -9081 8281471 -8281471 -2200606440726 2200619204542 -37814 -2200619060004 2200619097820 -37816 10395153 -10395152 -2200619077822 2200619091459 -13631 13641 18 -13651 13626 -13646 13625 -13629 -5586 2200619204752 13648 13635 -13632 13631 -13626 -2200619097821 2200619097817 25 -63264 63264 -2200619121559 23743 -10409718 -4458908 -12566 168 12395 -10361623 -4507016 4471316 10397322 -10397321 35922 -3744267533 3739760293 -3739760293 3744267335 -48117 12397 -13630 13627 -13627 -2200619071793 2200619097823 -26031 26048 -26049 26028 -13649 -2200619108741 2200619122368 -26050 -2200619121577 23740 2200619097833 -13642 -2200619122390 -12403 26031 -13628 -288223780699427632 288223780699427630 13651 -26051 12405 13629 -13645 13628 26029 -2200619121564 2200619121559 -2200619121575 2200619121563 -2200619121538 2200619095498 13652 26049 26045 -26046 -26030 -2200619095534 -12395 -2200619093682 2200619106076 -2200619108735 2200619096343 26050 -13657 -12392 48119 -48115 12391 -12391 35729 -35728 -12390 26047 -26026 12387 -12389 26030 -26025 -26022 26041 -13654 -26039 26027 -2200619121561 2200619121579 13656 -2200619204601 2200619204590 -26020 -26038 26044 -2200619122391 2200619122384 -2200619121539 2200619121541 -13652 2200619122385 26042 -37247 63289 -26040 10410418 -10384380 -2200619204606 -26033 26026 -12387 12386 -12386 -5593 -20439 26032 -184737 -2200619020006 2200619178716 -37238 85355 -22085 -26027 48092 -35708 37208 20440 134813 26023 12383 35709 134811 12385 35707 -48093 -2200619095683 2200619095520 48093 -35714 -2200619108068 2200619108070 -188387 2200619095667 -85285 -12378 12382 -12381 -2200619095521 12377 35715 -35713 -12379 -2200619095669 2200619095668 -657 2200618971488 137241 11929 -11929 -11930 11931 -11933 11933 -2200619119979 2200619108050 24312 -24313 24311 -11936 -24168 59886 -23779 -2200619202934 2200619226713 23779 24313 -23781 -11938 -37894 37897 11937 11935 -11935 35714 -11937 11936 49569 -61504 61502 -36104 2200619089740 -2200619096347 2200619070828 37893 -11931 20441 -20441 10389980 -10410420 10410419 -10447627 49594 134809 -37903 37904 134807 -49575 49576 -12385 26022 -5581 5592 -20440 -2200619092280 2200619034601 2200619019998 158718 48117 -48118 -20438 -11794 206810 -648670 600575 -600573 2200619122373 -63811 37788 -37787 37787 12381 -12383 59910 -206834 158716 20442 -158712 -100402 10566264 -10506241 96780 -158723 158722 -48116 -158719 158719 -2200619185966 2200619185966 12378 -35738 -10409462 -2200619095768 2200619095770 2200619185965 26025 -158715 206807 -35716 134535 10407547 -10409575 10409575 2200618937041 10397199 -2200629475000 10398034 -10468726 -10397080 -24173 301 -2200629473275 2200617907430 -2200629503994 -10409576 -158722 -2200619108144 2200619095771 -158714 -2200618937057 -2200618936806 2200619095530 48118 -206826 158709 -37248 37248 -10362325 -48092 -10410417 10362305 -10362329 -37207 134815 12368 35724 -35723 -12372 -37192 49557 11948 -11947 10398057 -10398055 147183 -12370 -37239 37237 48094 -158710 206802 -85302 134805 11945 -159118 109286 -109284 134803 -11946 -12366 -35726 -2200619058961 -48975 2200619178529 -158709 -37249 37247 10410417 -10362324 -48095 20438 27654 -206802 -2200619143631 3602464 2200615456508 -13624 13624 22102 -22098 -26002 -183020 37177 25995 -12365 12366 25991 10381556 -10381554 -25992 26009 -26010 -22107 22100 -22081 -2200619121546 2200619121527 -25990 26002 -5563 -2200619092279 2200618913130 37231 26014 22083 -22083 -26011 48095 -22079 25994 21 -2200619088674 2200619062663 -63238 72465870412 -25994 26011 25996 12362 -2200619084158 2200619097804 -26007 26008 22109 -2200619122361 2200619108709 -12362 12363 -12364 26012 -26017 26017 25997 -2200619119683 2200619056338 63357 -2200619122355 2200619122361 -2200619122367 2200619122354 -63357 63355 -13650 -13653 13655 -2200619121513 2200619121493 -2200619059100 -72465870414 72465870414 -63360 63345 -13635 -49710 63368 -63367 63363 -63365 63362 -49711 49706 -49708 49710 49707 13638 -63345 63341 -63337 63340 -63343 -2200619034447 2200619034448 49705 -49703 90904 -90903 -3744181861 3744181860 -3744181860 -3739760288 3754628927 -49705 -2200619058431 -10397358 -3744231657 -2200619122360 2200619122360 -13655 13657 -5556 -13656 13662 -13659 13653 -13647 13658 -2200619107861 2200619121510 -13648 13654 -2200619121515 13650 -23 -2200619121492 2200619058265 63252 2200619122362 -2200619121551 2200619121550 -13640 13636 -12785074 12779518 5569 -2200619204721 83212 13647 13637 -51516 56910 42881 -45922 45923 -61910 -37882 37881 -37881 37883 13630 49615 10398051 10397196 2200619108726 10397191 -12394 26055 -13 -2200619122385 2200619122383 26024 -37242 63273 -72465870434 72465870434 -2200619121574 2200619121582 -2200619122383 -2200619121581 2200619121581 -2200619122373 2200619122377 -13638 -12750186 12750189 -24188 37816 -12702900 12702900 -12741114 11533219 1207886 -15085 24170 -12750199 12750200 -9086 9085 -24199 24203 -19173666 -1465996311565 1465996311559 182673 -1465996494619 1465996311945 19173666 -18990992 -1465996494211 1465996311537 182668 18990995 1465964475023 32019139 -187393 -1465996306811 -1489 1465964465863 -1465964464069 -1462 1462 -1794 -1425 -32015358 -1465964464066 -19004387 13314 18432 -205827 -1465996307144 1465996307145 -1465996307130 96288 -9205 9204 -9204 -14993 14992 -12687894 -2200606404151 2200619092046 9203 -12687900 12697106 -14992 -12697098 12687900 -12687903 -2200606493820 2200614722197 -8228377 12672908 -12182 -2200619047824 2200619047824 12180 2200619077822 -36359 36365 -36351 36345 -36348 -22 36372 -36371 36367 -36355 44412 106876 2200619047888 36350 -36361 36364 -36365 36370 -36370 -2200619047825 2200619047840 -13268 13268 -2200619071563 -10409886 -4458740 -12534 -32 12563 4507240 -35924 35954 -3744267565 3744267559 -48509 12565 -2200619047820 2200619071625 12564 -36347 23783 -36363 23800 -2200619071583 2200619107936 -2200619108747 2200619096176 12569 -36368 23805 -23783 -2200619047841 -23797 36369 -288223780699432432 288223780699432430 -36345 23777 12573 -36367 36368 36351 -23799 -2200619071568 2200619071563 -2200619071579 2200619071567 -2200619071542 2200619095330 -36344 23778 23782 23798 -23800 -2200619071566 -12563 -2200619093514 2200619096175 -23778 36339 -12560 48507 -48514 12559 -12559 35953 -35952 -12558 -23785 23802 12555 -12557 -23798 -23802 23803 -23808 23806 -23787 36342 -23801 -2200619071565 2200619071583 -2200619154605 2200619154594 23808 23790 -2200619096179 2200619072388 -2200619071543 2200619071545 36344 2200619072389 23789 -23786 -37079 13293 23788 10410586 -10434376 -2200619154610 23795 44410 -12555 12554 -12554 44403 -20607 -23796 -134741 2200619178548 -37070 85579 -72305 23796 48484 -35932 37040 20608 134645 -23805 12551 35933 134643 12553 35931 -48485 -2200619095515 2200619095352 48485 -35938 2200619095499 -85509 -12546 12550 -12549 -2200619095353 12545 35939 -35937 -12547 -2200619095501 2200619095500 2200618971556 137173 11869 -11869 -11870 11871 11872 -2200619119920 2200619119921 24420 -24421 24419 -11876 60110 -24063 -2200619202874 2200619226937 24063 24421 -24065 -11878 -37984 37987 11877 11875 -11875 35938 -11877 11874 11876 -61444 61442 -36044 2200619089680 2200619070738 37983 -11871 20609 -20609 -10410588 10410587 134641 -37993 37994 134639 -12553 -23806 44415 -44404 -20608 158550 48509 -48510 -20606 -11626 207034 -600409 600407 -600405 -2200618495772 2200619072377 -13815 37620 -37619 37619 12549 -12551 60134 -207058 158548 20610 -158544 -100400 -10504328 10506241 -10409629 -158555 158554 -48508 -158551 158551 -2200619185798 2200619185798 12546 -35962 -10409630 -2200619095600 2200619095602 -158550 158555 -2200619185797 2200619185797 -23803 36347 -158547 207031 -35940 134367 10407715 -10409743 10409743 -10409744 -158554 2200619095603 -158546 2200619095362 48510 -207050 158541 -37080 37080 -10362101 -48484 37079 10410590 -10410590 -37039 134647 12536 35948 -35947 -12540 -37024 11888 -11887 -12539 -37071 37069 48486 -158542 207026 -85526 134637 11885 -159058 109196 -109194 134635 -11886 -35950 2200619178361 -158541 -37081 10410585 -10362100 -48487 -27876 -2200618936829 3549701 2200615472903 23826 12535 35950 -48486 24418 -182960 -37009 37008 -23836 10431548 -10431550 23836 -23819 23818 -72327 72320 -72301 -2200619071550 2200619071529 23834 23835 -23826 44433 2200619092279 37063 -23814 72303 -72303 23817 48487 -72299 -23834 16 -24 -2200619038676 2200619025417 -72465844251 72465820416 -23817 -23832 23838 12530 2200619047808 23821 -23820 72329 -2200619072365 -12530 12531 -12532 -23816 23811 -23811 23813 -23831 -2200619069701 2200619056154 13545 -2200619072359 2200619072365 -2200619072371 2200619072358 -13545 13543 -36340 36343 -36341 -2200619071517 2200619071497 -13242 -72465820418 72465820418 -13548 13533 36361 -49894 13556 -13555 13551 -13553 13550 -49895 49890 -49892 49894 49891 -36358 -13533 13529 -13525 13528 -13531 -2200619034263 2200619034264 49889 -49887 91120 -91119 -3744181682 -3739760282 -49889 -2200619058247 3744231655 -2200619072364 2200619072364 36341 36346 -36339 44440 36340 -36334 36337 -36343 36349 -36338 2200619071514 36348 -36342 -2200619071519 -36346 -2200619071496 13256 2200619072366 -2200619071555 2200619071554 36356 -36360 44427 -12779668 -2200606419485 2200619154726 -2200619071513 -36349 -1610 56983 42956 -45980 45981 -61968 -37972 37971 -37971 37973 -36366 -10397074 -12562 -23773 -2200619072389 2200619072387 -23804 -37074 13277 -72465820438 72465820438 -2200619071584 2200619071586 -2200619072387 -2200619071577 2200619071585 -2200619072377 2200619072381 36358 -12697092 12697095 -12180 -36369 2200619047827 -9201 -12702808 12702807 11480134 -11480125 12687891 -14965 -12697105 -9206 9205 -19178466 -1465996306765 1465996306759 187439 -1465996494585 19178466 -18991026 -1465996494177 1465996306737 187434 18991029 1465964475013 32019149 -501313 -1465995992891 51019745 -1466015485303 1466015485304 -1466015487034 -519747 -1465995993224 1465995993225 -1465995993210 -96285 96285 -8988 -15208 24198 -12750074 -2200606351177 2200619092262 8987 -12741090 12750080 -8989 -12750072 12741090 -12741093 -2200606440846 2200619211410 -4489213 4444531 2200619104688 -44684 20505 -20499 20513 -20518 20494 -20514 -20492 8040 2200619104752 20516 20503 -20500 20499 -20494 -2200619104704 2200619104710 -70132 70132 -2200619128427 -10409854 -4458772 -12286 -248 4507272 -35956 35762 -3744267373 3744267591 12533 -20495 20501 -2200619104691 2200619104709 -33052 33032 -2200619129258 2200619129241 -33054 33027 -2200619128448 2200619128447 -2200619104707 2200619104701 -20510 12534 -12533 33035 -20496 -288223780699746352 288223780699746350 20519 -33055 12541 20497 -20513 20496 33033 -2200619128432 2200619128427 -2200619128443 2200619128431 -2200619128406 20520 -33053 33054 
Potential of Offsets elements: 27.9869 27.9869 1007.13 903.987 0.490244 989.987 345.987 27.9869 27.9869 27.9869 405.987 27.9869 27.9869 494.987 27.9869 27.9869 27.9869 31.9869 27.9869 27.9869 27.9869 27.9869 27.9869 27.9869 27.9869 27.9869 27.9869 42.9869 177.987 59.9869 104.987 36.9869 47.9869 51.9869 63.9869 60.9869 120.987 469.987 79.9869 369.987 31.9869 29.9869 153.987 42.9869 45.9869 105.987 43.9869 96.9869 43.9869 57.9869 75.9869 28.9869 27.9869 37.9869 27.9869 27.9869 27.9869 27.9869 27.9869 27.9869 27.9869 27.9869 27.9869 27.9869 33.9869 27.9869 570.987 27.9869 27.9869 27.9869 27.9869 27.9869 27.9869 27.9869 27.9869 27.9869 27.9869 27.9869 27.9869 27.9869 27.9869 27.9869 610.987 27.9869 27.9869 27.9869 33.9869 27.9869 646.987 27.9869 27.9869 27.9869 27.9869 27.9869 27.9869 27.9869 27.9869 27.9869 27.9869 27.9869 27.9869 27.9869 27.9869 27.9869 27.9869 193.987 506.987 309.987 27.9869 27.9869 379.987 27.9869 27.9869 27.9869 27.9869 428.987 422.987 27.9869 32.9869 30.9869 57.9869 33.9869 31.9869 28.9869 27.9869 514.987 27.9869 27.9869 27.9869 27.9869 27.9869 27.9869 118.987 27.9869 48.9869 27.9869 27.9869 27.9869 29.9869 27.9869 27.9869 30.9869 33.9869 27.9869 27.9869 27.9869 27.9869 27.9869 27.9869 27.9869 27.9869 31.9869 27.9869 30.9869 30.9869 27.9869 27.9869 27.9869 27.9869 43.9869 39.9869 27.9869 45.9869 67.9869 27.9869 27.9869 39.9869 27.9869 27.9869 27.9869 27.9869 27.9869 27.9869 27.9869 27.9869 27.9869 549.987 27.9869 27.9869 27.9869 27.9869 28.9869 27.9869 27.9869 27.9869 27.9869 27.9869 234.987 75.9869 48.9869 27.9869 27.9869 27.9869 27.9869 27.9869 27.9869 27.9869 221.987 27.9869 27.9869 27.9869 581.987 27.9869 27.9869 505.987 171.987 27.9869 27.9869 27.9869 27.9869 27.9869 27.9869 27.9869 27.9869 27.9869 27.9869 27.9869 27.9869 27.9869 27.9869 237.987 27.9869 27.9869 27.9869 27.9869 27.9869 27.9869 27.9869 27.9869 27.9869 27.9869 27.9869 27.9869 27.9869 27.9869 27.9869 27.9869 27.9869 27.9869 215.987 27.9869 27.9869 27.9869 27.9869 27.9869 27.9869 27.9869 27.9869 27.9869 27.9869 27.9869 27.9869 27.9869 397.987 183.987 192.987 27.9869 27.9869 27.9869 27.9869 27.9869 177.987 27.9869 27.9869 27.9869 27.9869 27.9869 27.9869 27.9869 27.9869 27.9869 27.9869 27.9869 27.9869 27.9869 27.9869 27.9869 27.9869 27.9869 27.9869 200.987 27.9869 27.9869 27.9869 27.9869 27.9869 27.9869 27.9869 27.9869 27.9869 27.9869 27.9869 27.9869 27.9869 43.9869 27.9869 27.9869 227.987 27.9869 27.9869 27.9869 36.9869 27.9869 27.9869 27.9869 27.9869 27.9869 27.9869 27.9869 27.9869 27.9869 27.9869 27.9869 27.9869 27.9869 27.9869 27.9869 63.9869 27.9869 27.9869 29.9869 27.9869 27.9869 27.9869 27.9869 34.9869 27.9869 27.9869 27.9869 27.9869 27.9869 27.9869 27.9869 27.9869 27.9869 27.9869 27.9869 67.9869 27.9869 27.9869 27.9869 27.9869 27.9869 27.9869 27.9869 27.9869 27.9869 27.9869 27.9869 77.9869 27.9869 27.9869 27.9869 27.9869 27.9869 27.9869 27.9869 27.9869 27.9869 27.9869 27.9869 27.9869 27.9869 27.9869 27.9869 110.987 277.987 40.9869 36.9869 27.9869 63.9869 27.9869 27.9869 27.9869 27.9869 27.9869 27.9869 27.9869 57.9869 27.9869 27.9869 27.9869 27.9869 27.9869 27.9869 27.9869 27.9869 27.9869 27.9869 27.9869 27.9869 27.9869 27.9869 27.9869 27.9869 27.9869 27.9869 27.9869 27.9869 27.9869 27.9869 27.9869 27.9869 27.9869 27.9869 27.9869 27.9869 27.9869 27.9869 27.9869 27.9869 27.9869 27.9869 27.9869 27.9869 27.9869 27.9869 27.9869 36.9869 27.9869 27.9869 27.9869 27.9869 27.9869 27.9869 27.9869 27.9869 27.9869 27.9869 27.9869 27.9869 27.9869 27.9869 27.9869 27.9869 27.9869 27.9869 27.9869 27.9869 27.9869 27.9869 27.9869 27.9869 27.9869 27.9869 27.9869 27.9869 27.9869 27.9869 27.9869 27.9869 27.9869 27.9869 27.9869 27.9869 27.9869 27.9869 27.9869 27.9869 27.9869 27.9869 27.9869 27.9869 27.9869 27.9869 27.9869 27.9869 27.9869 27.9869 56.9869 27.9869 27.9869 27.9869 27.9869 27.9869 27.9869 84.9869 31.9869 27.9869 58.9869 27.9869 27.9869 45.9869 33.9869 27.9869 35.9869 28.9869 32.9869 33.9869 29.9869 31.9869 33.9869 46.9869 177.987 27.9869 27.9869 28.9869 27.9869 41.9869 77.9869 37.9869 31.9869 45.9869 27.9869 27.9869 37.9869 79.9869 27.9869 41.9869 27.9869 27.9869 27.9869 27.9869 27.9869 165.987 27.9869 75.9869 56.9869 27.9869 27.9869 33.9869 50.9869 77.9869 27.9869 27.9869 27.9869 27.9869 27.9869 27.9869 27.9869 27.9869 27.9869 27.9869 27.9869 27.9869 27.9869 27.9869 27.9869 27.9869 27.9869 27.9869 27.9869 27.9869 109.987 27.9869 27.9869 30.9869 27.9869 27.9869 27.9869 27.9869 27.9869 27.9869 27.9869 27.9869 27.9869 27.9869 27.9869 33.9869 27.9869 27.9869 27.9869 27.9869 27.9869 27.9869 27.9869 27.9869 27.9869 27.9869 27.9869 27.9869 27.9869 27.9869 27.9869 27.9869 27.9869 27.9869 27.9869 27.9869 27.9869 27.9869 27.9869 27.9869 27.9869 27.9869 27.9869 27.9869 27.9869 27.9869 27.9869 27.9869 27.9869 27.9869 27.9869 27.9869 27.9869 27.9869 27.9869 27.9869 27.9869 27.9869 27.9869 27.9869 27.9869 27.9869 27.9869 27.9869 27.9869 27.9869 27.9869 27.9869 27.9869 27.9869 27.9869 27.9869 27.9869 27.9869 27.9869 27.9869 27.9869 27.9869 27.9869 27.9869 27.9869 27.9869 27.9869 27.9869 27.9869 27.9869 27.9869 27.9869 27.9869 27.9869 27.9869 205.987 27.9869 27.9869 27.9869 27.9869 27.9869 83.9869 27.9869 325.987 27.9869 27.9869 27.9869 27.9869 27.9869 27.9869 27.9869 27.9869 27.9869 27.9869 27.9869 27.9869 27.9869 573.987 27.9869 27.9869 27.9869 27.9869 27.9869 575.987 27.9869 27.9869 53.9869 27.9869 27.9869 27.9869 27.9869 27.9869 27.9869 27.9869 27.9869 27.9869 27.9869 27.9869 27.9869 27.9869 27.9869 27.9869 27.9869 27.9869 27.9869 27.9869 27.9869 27.9869 27.9869 27.9869 27.9869 27.9869 27.9869 27.9869 27.9869 27.9869 27.9869 27.9869 27.9869 27.9869 27.9869 36.9869 27.9869 27.9869 27.9869 27.9869 33.9869 27.9869 27.9869 33.9869 27.9869 27.9869 27.9869 306.987 27.9869 27.9869 27.9869 27.9869 77.9869 43.9869 27.9869 527.987 27.9869 27.9869 27.9869 27.9869 27.9869 64.9869 27.9869 27.9869 27.9869 27.9869 276.987 27.9869 67.9869 27.9869 27.9869 27.9869 162.987 27.9869 27.9869 27.9869 75.9869 27.9869 27.9869 27.9869 27.9869 27.9869 509.987 27.9869 27.9869 27.9869 27.9869 27.9869 27.9869 27.9869 27.9869 27.9869 27.9869 27.9869 27.9869 27.9869 27.9869 27.9869 27.9869 27.9869 27.9869 27.9869 27.9869 27.9869 27.9869 27.9869 27.9869 27.9869 27.9869 27.9869 27.9869 27.9869 27.9869 27.9869 27.9869 27.9869 27.9869 27.9869 27.9869 27.9869 27.9869 27.9869 27.9869 29.9869 46.9869 51.9869 27.9869 27.9869 27.9869 27.9869 30.9869 27.9869 27.9869 27.9869 27.9869 27.9869 27.9869 27.9869 27.9869 27.9869 27.9869 27.9869 27.9869 82.9869 27.9869 27.9869 27.9869 27.9869 27.9869 27.9869 27.9869 27.9869 27.9869 27.9869 27.9869 27.9869 27.9869 27.9869 27.9869 27.9869 27.9869 27.9869 27.9869 27.9869 27.9869 27.9869 27.9869 27.9869 27.9869 27.9869 27.9869 28.9869 27.9869 27.9869 27.9869 27.9869 27.9869 35.9869 27.9869 27.9869 33.9869 27.9869 27.9869 33.9869 27.9869 27.9869 28.9869 27.9869 33.9869 27.9869 27.9869 29.9869 27.9869 27.9869 28.9869 27.9869 27.9869 37.9869 27.9869 27.9869 27.9869 27.9869 27.9869 27.9869 27.9869 27.9869 30.9869 27.9869 27.9869 31.9869 27.9869 27.9869 27.9869 27.9869 27.9869 27.9869 27.9869 27.9869 27.9869 27.9869 27.9869 27.9869 27.9869 27.9869 27.9869 27.9869 48.9869 29.9869 27.9869 27.9869 27.9869 418.987 27.9869 27.9869 27.9869 27.9869 27.9869 27.9869 27.9869 27.9869 27.9869 27.9869 27.9869 27.9869 27.9869 27.9869 369.987 27.9869 27.9869 27.9869 31.9869 27.9869 27.9869 27.9869 27.9869 27.9869 27.9869 27.9869 27.9869 27.9869 27.9869 27.9869 27.9869 27.9869 27.9869 27.9869 27.9869 27.9869 27.9869 27.9869 76.9869 27.9869 27.9869 27.9869 27.9869 27.9869 27.9869 27.9869 30.9869 27.9869 27.9869 27.9869 27.9869 27.9869 27.9869 27.9869 27.9869 27.9869 27.9869 27.9869 27.9869 27.9869 27.9869 27.9869 27.9869 27.9869 27.9869 27.9869 27.9869 27.9869 27.9869 27.9869 27.9869 27.9869 27.9869 27.9869 27.9869 27.9869 27.9869 27.9869 27.9869 27.9869 27.9869 27.9869 27.9869 27.9869 27.9869 27.9869 27.9869 27.9869 27.9869 27.9869 27.9869 27.9869 27.9869 27.9869 27.9869 27.9869 27.9869 27.9869 27.9869 27.9869 27.9869 27.9869 27.9869 27.9869 27.9869 27.9869 27.9869 27.9869 27.9869 27.9869 27.9869 27.9869 27.9869 27.9869 27.9869 27.9869 27.9869 27.9869 27.9869 27.9869 35.9869 27.9869 27.9869 27.9869 27.9869 27.9869 27.9869 27.9869 33.9869 27.9869 27.9869 27.9869 27.9869 27.9869 27.9869 27.9869 27.9869 27.9869 27.9869 27.9869 27.9869 27.9869 27.9869 27.9869 27.9869 27.9869 27.9869 27.9869 27.9869 27.9869 27.9869 27.9869 27.9869 27.9869 27.9869 27.9869 27.9869 27.9869 41.9869 61.9869 27.9869 27.9869 27.9869 28.9869 27.9869 27.9869 27.9869 27.9869 27.9869 27.9869 27.9869 27.9869 27.9869 27.9869 27.9869 27.9869 27.9869 27.9869 27.9869 27.9869 27.9869 27.9869 27.9869 27.9869 27.9869 104.987 42.9869 27.9869 28.9869 27.9869 27.9869 28.9869 27.9869 27.9869 27.9869 27.9869 27.9869 27.9869 27.9869 228.987 122.987 27.9869 27.9869 39.9869 27.9869 27.9869 27.9869 27.9869 27.9869 27.9869 27.9869 27.9869 37.9869 27.9869 27.9869 27.9869 27.9869 27.9869 27.9869 27.9869 27.9869 27.9869 27.9869 27.9869 27.9869 27.9869 27.9869 27.9869 27.9869 27.9869 27.9869 27.9869 27.9869 27.9869 27.9869 27.9869 27.9869 27.9869 27.9869 27.9869 27.9869 27.9869 27.9869 27.9869 27.9869 27.9869 27.9869 27.9869 27.9869 27.9869 27.9869 28.9869 27.9869 27.9869 27.9869 27.9869 27.9869 27.9869 27.9869 27.9869 27.9869 27.9869 27.9869 27.9869 27.9869 27.9869 27.9869 27.9869 27.9869 27.9869 27.9869 27.9869 27.9869 27.9869 27.9869 27.9869 27.9869 27.9869 27.9869 27.9869 27.9869 27.9869 27.9869 27.9869 27.9869 27.9869 29.9869 27.9869 27.9869 27.9869 27.9869 27.9869 27.9869 27.9869 27.9869 27.9869 27.9869 27.9869 27.9869 27.9869 27.9869 27.9869 27.9869 27.9869 27.9869 27.9869 27.9869 27.9869 27.9869 27.9869 27.9869 27.9869 27.9869 27.9869 27.9869 57.9869 27.9869 27.9869 35.9869 33.9869 27.9869 27.9869 27.9869 27.9869 27.9869 27.9869 27.9869 27.9869 27.9869 27.9869 27.9869 27.9869 27.9869 27.9869 27.9869 27.9869 27.9869 27.9869 27.9869 27.9869 27.9869 27.9869 27.9869 27.9869 27.9869 27.9869 27.9869 27.9869 27.9869 27.9869 27.9869 27.9869 27.9869 27.9869 27.9869 27.9869 27.9869 27.9869 27.9869 27.9869 27.9869 27.9869 27.9869 27.9869 27.9869 35.9869 27.9869 27.9869 27.9869 27.9869 27.9869 27.9869 28.9869 27.9869 27.9869 27.9869 35.9869 34.9869 28.9869 27.9869 27.9869 27.9869 27.9869 27.9869 27.9869 37.9869 568.987 27.9869 27.9869 27.9869 27.9869 49.9869 27.9869 27.9869 27.9869 72.9869 27.9869 27.9869 27.9869 28.9869 27.9869 27.9869 27.9869 27.9869 27.9869 27.9869 27.9869 27.9869 27.9869 27.9869 27.9869 27.9869 27.9869 27.9869 27.9869 27.9869 27.9869 27.9869 27.9869 27.9869 27.9869 27.9869 27.9869 27.9869 27.9869 27.9869 27.9869 27.9869 27.9869 27.9869 27.9869 27.9869 27.9869 27.9869 27.9869 27.9869 27.9869 27.9869 27.9869 27.9869 27.9869 27.9869 27.9869 27.9869 27.9869 27.9869 27.9869 27.9869 27.9869 27.9869 27.9869 27.9869 27.9869 27.9869 27.9869 27.9869 27.9869 27.9869 27.9869 27.9869 27.9869 27.9869 27.9869 27.9869 27.9869 27.9869 27.9869 27.9869 27.9869 27.9869 27.9869 27.9869 27.9869 27.9869 27.9869 27.9869 27.9869 53.9869 459.987 27.9869 27.9869 27.9869 27.9869 27.9869 27.9869 27.9869 40.9869 27.9869 27.9869 27.9869 27.9869 27.9869 27.9869 27.9869 27.9869 27.9869 27.9869 27.9869 27.9869 27.9869 27.9869 35.9869 57.9869 27.9869 27.9869 38.9869 27.9869 27.9869 51.9869 184.987 36.9869 27.9869 234.987 27.9869 27.9869 27.9869 27.9869 27.9869 27.9869 27.9869 27.9869 27.9869 27.9869 27.9869 27.9869 27.9869 27.9869 27.9869 27.9869 27.9869 27.9869 27.9869 27.9869 27.9869 27.9869 27.9869 27.9869 27.9869 117.987 27.9869 27.9869 27.9869 27.9869 45.9869 27.9869 27.9869 27.9869 27.9869 27.9869 27.9869 27.9869 27.9869 27.9869 27.9869 27.9869 27.9869 27.9869 27.9869 27.9869 27.9869 27.9869 27.9869 27.9869 39.9869 27.9869 27.9869 57.9869 27.9869 27.9869 29.9869 27.9869 27.9869 29.9869 27.9869 27.9869 27.9869 27.9869 27.9869 27.9869 27.9869 27.9869 29.9869 27.9869 30.9869 27.9869 27.9869 27.9869 27.9869 27.9869 27.9869 27.9869 27.9869 27.9869 27.9869 27.9869 27.9869 27.9869 27.9869 27.9869 27.9869 27.9869 41.9869 27.9869 27.9869 27.9869 27.9869 27.9869 524.987 27.9869 86.9869 27.9869 27.9869 27.9869 27.9869 27.9869 27.9869 27.9869 27.9869 27.9869 27.9869 27.9869 27.9869 27.9869 27.9869 27.9869 27.9869 27.9869 27.9869 27.9869 421.987 27.9869 27.9869 27.9869 27.9869 27.9869 27.9869 27.9869 27.9869 27.9869 27.9869 27.9869 27.9869 27.9869 27.9869 27.9869 27.9869 27.9869 27.9869 27.9869 27.9869 27.9869 27.9869 27.9869 27.9869 27.9869 27.9869 27.9869 27.9869 27.9869 27.9869 27.9869 27.9869 27.9869 27.9869 27.9869 27.9869 27.9869 27.9869 27.9869 27.9869 27.9869 27.9869 27.9869 27.9869 27.9869 27.9869 27.9869 27.9869 27.9869 27.9869 27.9869 27.9869 27.9869 27.9869 27.9869 27.9869 27.9869 27.9869 27.9869 27.9869 27.9869 27.9869 27.9869 27.9869 27.9869 27.9869 27.9869 27.9869 27.9869 27.9869 27.9869 27.9869 27.9869 29.9869 27.9869 27.9869 27.9869 27.9869 27.9869 27.9869 27.9869 27.9869 27.9869 27.9869 27.9869 27.9869 27.9869 27.9869 27.9869 27.9869 27.9869 27.9869 27.9869 27.9869 27.9869 27.9869 27.9869 27.9869 27.9869 27.9869 27.9869 27.9869 27.9869 27.9869 27.9869 27.9869 27.9869 27.9869 27.9869 27.9869 27.9869 27.9869 27.9869 27.9869 27.9869 27.9869 27.9869 27.9869 27.9869 27.9869 27.9869 27.9869 27.9869 27.9869 27.9869 27.9869 27.9869 27.9869 27.9869 27.9869 27.9869 27.9869 27.9869 27.9869 27.9869 27.9869 27.9869 27.9869 27.9869 27.9869 27.9869 27.9869 27.9869 27.9869 27.9869 27.9869 27.9869 27.9869 27.9869 27.9869 27.9869 27.9869 27.9869 27.9869 27.9869 27.9869 27.9869 27.9869 27.9869 27.9869 27.9869 27.9869 27.9869 27.9869 27.9869 27.9869 27.9869 27.9869 27.9869 27.9869 27.9869 27.9869 27.9869 27.9869 27.9869 27.9869 27.9869 27.9869 27.9869 27.9869 27.9869 27.9869 27.9869 27.9869 27.9869 27.9869 27.9869 27.9869 27.9869 27.9869 27.9869 27.9869 27.9869 27.9869 27.9869 27.9869 27.9869 27.9869 27.9869 27.9869 27.9869 27.9869 27.9869 27.9869 27.9869 27.9869 27.9869 27.9869 27.9869 27.9869 27.9869 27.9869 27.9869 27.9869 27.9869 27.9869 27.9869 27.9869 27.9869 27.9869 27.9869 27.9869 27.9869 27.9869 27.9869 27.9869 27.9869 27.9869 27.9869 27.9869 27.9869 27.9869 27.9869 27.9869 27.9869 27.9869 27.9869 27.9869 27.9869 27.9869 27.9869 27.9869 27.9869 27.9869 27.9869 27.9869 27.9869 27.9869 27.9869 27.9869 27.9869 27.9869 27.9869 27.9869 27.9869 27.9869 27.9869 27.9869 27.9869 27.9869 27.9869 27.9869 27.9869 27.9869 27.9869 27.9869 27.9869 30.9869 27.9869 27.9869 27.9869 27.9869 27.9869 27.9869 27.9869 27.9869 27.9869 27.9869 27.9869 27.9869 27.9869 31.9869 27.9869 27.9869 27.9869 27.9869 27.9869 27.9869 27.9869 27.9869 27.9869 27.9869 27.9869 27.9869 27.9869 27.9869 27.9869 27.9869 27.9869 27.9869 27.9869 27.9869 27.9869 27.9869 27.9869 27.9869 27.9869 29.9869 27.9869 27.9869 27.9869 27.9869 27.9869 27.9869 27.9869 27.9869 252.987 456.987 27.9869 27.9869 27.9869 27.9869 27.9869 27.9869 27.9869 27.9869 27.9869 27.9869 27.9869 27.9869 27.9869 27.9869 27.9869 27.9869 27.9869 27.9869 27.9869 27.9869 27.9869 27.9869 27.9869 27.9869 27.9869 27.9869 27.9869 27.9869 27.9869 27.9869 27.9869 27.9869 27.9869 27.9869 27.9869 27.9869 27.9869 27.9869 27.9869 27.9869 27.9869 27.9869 27.9869 27.9869 27.9869 27.9869 27.9869 27.9869 27.9869 27.9869 28.9869 45.9869 27.9869 27.9869 27.9869 27.9869 27.9869 27.9869 27.9869 27.9869 27.9869 27.9869 27.9869 27.9869 27.9869 27.9869 27.9869 27.9869 27.9869 27.9869 27.9869 27.9869 27.9869 27.9869 27.9869 27.9869 27.9869 27.9869 27.9869 27.9869 27.9869 27.9869 27.9869 27.9869 27.9869 27.9869 27.9869 27.9869 27.9869 27.9869 27.9869 27.9869 27.9869 27.9869 27.9869 27.9869 27.9869 27.9869 27.9869 27.9869 27.9869 27.9869 27.9869 27.9869 27.9869 27.9869 27.9869 27.9869 27.9869 27.9869 27.9869 27.9869 27.9869 27.9869 27.9869 852.987 27.9869 28.9869 27.9869 27.9869 27.9869 27.9869 27.9869 35.9869 27.9869 27.9869 27.9869 27.9869 27.9869 27.9869 35.9869 27.9869 27.9869 27.9869 27.9869 27.9869 27.9869 27.9869 27.9869 27.9869 27.9869 27.9869 27.9869 27.9869 27.9869 27.9869 27.9869 27.9869 27.9869 27.9869 27.9869 27.9869 27.9869 27.9869 27.9869 27.9869 27.9869 27.9869 39.9869 27.9869 31.9869 27.9869 27.9869 27.9869 27.9869 27.9869 33.9869 27.9869 27.9869 27.9869 27.9869 27.9869 27.9869 27.9869 27.9869 28.9869 27.9869 27.9869 28.9869 29.9869 28.9869 27.9869 27.9869 27.9869 32.9869 36.9869 27.9869 27.9869 27.9869 27.9869 27.9869 27.9869 27.9869 27.9869 27.9869 27.9869 27.9869 27.9869 27.9869 27.9869 27.9869 27.9869 27.9869 27.9869 27.9869 27.9869 27.9869 27.9869 27.9869 27.9869 27.9869 27.9869 27.9869 27.9869 27.9869 27.9869 27.9869 27.9869 27.9869 27.9869 27.9869 27.9869 27.9869 27.9869 27.9869 27.9869 27.9869 27.9869 27.9869 27.9869 27.9869 27.9869 27.9869 27.9869 27.9869 27.9869 27.9869 27.9869 27.9869 27.9869 27.9869 27.9869 27.9869 27.9869 27.9869 27.9869 27.9869 27.9869 27.9869 27.9869 27.9869 27.9869 
rewards of Offsets elements: 0 0 1007 876 0 962 318 0 0 0 378 0 0 467 0 0 0 4 0 0 0 0 0 0 0 0 0 15 150 32 77 9 20 24 36 33 93 442 52 342 4 2 126 15 18 78 16 69 16 30 48 1 0 10 0 0 0 0 0 0 0 0 0 0 6 0 543 0 0 0 0 0 0 0 0 0 0 0 0 0 0 0 583 0 0 0 6 0 619 0 0 0 0 0 0 0 0 0 0 0 0 0 0 0 0 166 479 282 0 0 352 0 0 0 0 401 395 0 5 3 30 6 4 1 0 487 0 0 0 0 0 0 91 0 21 0 0 0 2 0 0 3 6 0 0 0 0 0 0 0 0 4 0 3 3 0 0 0 0 16 12 0 18 40 0 0 12 0 0 0 0 0 0 0 0 0 522 0 0 0 0 1 0 0 0 0 0 207 48 21 0 0 0 0 0 0 0 194 0 0 0 554 0 0 478 144 0 0 0 0 0 0 0 0 0 0 0 0 0 0 210 0 0 0 0 0 0 0 0 0 0 0 0 0 0 0 0 0 0 188 0 0 0 0 0 0 0 0 0 0 0 0 0 370 156 165 0 0 0 0 0 150 0 0 0 0 0 0 0 0 0 0 0 0 0 0 0 0 0 0 173 0 0 0 0 0 0 0 0 0 0 0 0 0 16 0 0 200 0 0 0 9 0 0 0 0 0 0 0 0 0 0 0 0 0 0 0 36 0 0 2 0 0 0 0 7 0 0 0 0 0 0 0 0 0 0 0 40 0 0 0 0 0 0 0 0 0 0 0 50 0 0 0 0 0 0 0 0 0 0 0 0 0 0 0 83 250 13 9 0 36 0 0 0 0 0 0 0 30 0 0 0 0 0 0 0 0 0 0 0 0 0 0 0 0 0 0 0 0 0 0 0 0 0 0 0 0 0 0 0 0 0 0 0 0 0 0 0 9 0 0 0 0 0 0 0 0 0 0 0 0 0 0 0 0 0 0 0 0 0 0 0 0 0 0 0 0 0 0 0 0 0 0 0 0 0 0 0 0 0 0 0 0 0 0 0 0 0 0 29 0 0 0 0 0 0 57 4 0 31 0 0 18 6 0 8 1 5 6 2 4 6 19 150 0 0 1 0 14 50 10 4 18 0 0 10 52 0 14 0 0 0 0 0 138 0 48 29 0 0 6 23 50 0 0 0 0 0 0 0 0 0 0 0 0 0 0 0 0 0 0 0 0 82 0 0 3 0 0 0 0 0 0 0 0 0 0 0 6 0 0 0 0 0 0 0 0 0 0 0 0 0 0 0 0 0 0 0 0 0 0 0 0 0 0 0 0 0 0 0 0 0 0 0 0 0 0 0 0 0 0 0 0 0 0 0 0 0 0 0 0 0 0 0 0 0 0 0 0 0 0 0 0 0 0 0 0 0 0 0 0 0 0 0 178 0 0 0 0 0 56 0 298 0 0 0 0 0 0 0 0 0 0 0 0 0 546 0 0 0 0 0 548 0 0 26 0 0 0 0 0 0 0 0 0 0 0 0 0 0 0 0 0 0 0 0 0 0 0 0 0 0 0 0 0 0 0 0 0 0 9 0 0 0 0 6 0 0 6 0 0 0 279 0 0 0 0 50 16 0 500 0 0 0 0 0 37 0 0 0 0 249 0 40 0 0 0 135 0 0 0 48 0 0 0 0 0 482 0 0 0 0 0 0 0 0 0 0 0 0 0 0 0 0 0 0 0 0 0 0 0 0 0 0 0 0 0 0 0 0 0 0 0 0 0 0 0 0 2 19 24 0 0 0 0 3 0 0 0 0 0 0 0 0 0 0 0 0 55 0 0 0 0 0 0 0 0 0 0 0 0 0 0 0 0 0 0 0 0 0 0 0 0 0 0 0 1 0 0 0 0 0 8 0 0 6 0 0 6 0 0 1 0 6 0 0 2 0 0 1 0 0 10 0 0 0 0 0 0 0 0 3 0 0 4 0 0 0 0 0 0 0 0 0 0 0 0 0 0 0 0 21 2 0 0 0 391 0 0 0 0 0 0 0 0 0 0 0 0 0 0 342 0 0 0 4 0 0 0 0 0 0 0 0 0 0 0 0 0 0 0 0 0 0 0 49 0 0 0 0 0 0 0 3 0 0 0 0 0 0 0 0 0 0 0 0 0 0 0 0 0 0 0 0 0 0 0 0 0 0 0 0 0 0 0 0 0 0 0 0 0 0 0 0 0 0 0 0 0 0 0 0 0 0 0 0 0 0 0 0 0 0 0 0 0 0 0 0 0 0 0 0 0 0 0 0 0 8 0 0 0 0 0 0 0 6 0 0 0 0 0 0 0 0 0 0 0 0 0 0 0 0 0 0 0 0 0 0 0 0 0 0 0 0 0 14 34 0 0 0 1 0 0 0 0 0 0 0 0 0 0 0 0 0 0 0 0 0 0 0 0 0 77 15 0 1 0 0 1 0 0 0 0 0 0 0 201 95 0 0 12 0 0 0 0 0 0 0 0 10 0 0 0 0 0 0 0 0 0 0 0 0 0 0 0 0 0 0 0 0 0 0 0 0 0 0 0 0 0 0 0 0 0 0 0 0 0 0 1 0 0 0 0 0 0 0 0 0 0 0 0 0 0 0 0 0 0 0 0 0 0 0 0 0 0 0 0 0 0 0 0 0 0 2 0 0 0 0 0 0 0 0 0 0 0 0 0 0 0 0 0 0 0 0 0 0 0 0 0 0 0 0 30 0 0 8 6 0 0 0 0 0 0 0 0 0 0 0 0 0 0 0 0 0 0 0 0 0 0 0 0 0 0 0 0 0 0 0 0 0 0 0 0 0 0 0 0 0 0 0 0 0 8 0 0 0 0 0 0 1 0 0 0 8 7 1 0 0 0 0 0 0 10 541 0 0 0 0 22 0 0 0 45 0 0 0 1 0 0 0 0 0 0 0 0 0 0 0 0 0 0 0 0 0 0 0 0 0 0 0 0 0 0 0 0 0 0 0 0 0 0 0 0 0 0 0 0 0 0 0 0 0 0 0 0 0 0 0 0 0 0 0 0 0 0 0 0 0 0 0 0 0 0 0 0 0 0 0 0 0 0 0 0 0 26 432 0 0 0 0 0 0 0 13 0 0 0 0 0 0 0 0 0 0 0 0 0 0 8 30 0 0 11 0 0 24 157 9 0 207 0 0 0 0 0 0 0 0 0 0 0 0 0 0 0 0 0 0 0 0 0 0 0 0 0 90 0 0 0 0 18 0 0 0 0 0 0 0 0 0 0 0 0 0 0 0 0 0 0 0 12 0 0 30 0 0 2 0 0 2 0 0 0 0 0 0 0 0 2 0 3 0 0 0 0 0 0 0 0 0 0 0 0 0 0 0 0 0 14 0 0 0 0 0 497 0 59 0 0 0 0 0 0 0 0 0 0 0 0 0 0 0 0 0 0 0 394 0 0 0 0 0 0 0 0 0 0 0 0 0 0 0 0 0 0 0 0 0 0 0 0 0 0 0 0 0 0 0 0 0 0 0 0 0 0 0 0 0 0 0 0 0 0 0 0 0 0 0 0 0 0 0 0 0 0 0 0 0 0 0 0 0 0 0 0 0 0 0 0 0 2 0 0 0 0 0 0 0 0 0 0 0 0 0 0 0 0 0 0 0 0 0 0 0 0 0 0 0 0 0 0 0 0 0 0 0 0 0 0 0 0 0 0 0 0 0 0 0 0 0 0 0 0 0 0 0 0 0 0 0 0 0 0 0 0 0 0 0 0 0 0 0 0 0 0 0 0 0 0 0 0 0 0 0 0 0 0 0 0 0 0 0 0 0 0 0 0 0 0 0 0 0 0 0 0 0 0 0 0 0 0 0 0 0 0 0 0 0 0 0 0 0 0 0 0 0 0 0 0 0 0 0 0 0 0 0 0 0 0 0 0 0 0 0 0 0 0 0 0 0 0 0 0 0 0 0 0 0 0 0 0 0 0 0 0 0 0 0 0 0 0 0 0 0 0 0 0 0 0 0 0 0 0 0 0 0 0 0 0 0 0 0 0 0 3 0 0 0 0 0 0 0 0 0 0 0 0 0 4 0 0 0 0 0 0 0 0 0 0 0 0 0 0 0 0 0 0 0 0 0 0 0 0 0 2 0 0 0 0 0 0 0 0 225 429 0 0 0 0 0 0 0 0 0 0 0 0 0 0 0 0 0 0 0 0 0 0 0 0 0 0 0 0 0 0 0 0 0 0 0 0 0 0 0 0 0 0 0 0 0 0 0 0 0 0 1 18 0 0 0 0 0 0 0 0 0 0 0 0 0 0 0 0 0 0 0 0 0 0 0 0 0 0 0 0 0 0 0 0 0 0 0 0 0 0 0 0 0 0 0 0 0 0 0 0 0 0 0 0 0 0 0 0 0 0 0 0 0 0 0 825 0 1 0 0 0 0 0 8 0 0 0 0 0 0 8 0 0 0 0 0 0 0 0 0 0 0 0 0 0 0 0 0 0 0 0 0 0 0 0 0 0 0 12 0 4 0 0 0 0 0 6 0 0 0 0 0 0 0 0 1 0 0 1 2 1 0 0 0 5 9 0 0 0 0 0 0 0 0 0 0 0 0 0 0 0 0 0 0 0 0 0 0 0 0 0 0 0 0 0 0 0 0 0 0 0 0 0 0 0 0 0 0 0 0 0 0 0 0 0 0 0 0 0 0 0 0 0 0 0 0 0 0 0 0 0 0 Printing Sanity3
offset_index value2097
offset list size2097
reward size2097
potential size2097
-----------------------------------------------------------------------------------------------------------------------------------------------------------------------------------------------------

DRAM Statistics
 CHANNEL 0
 RQ ROW_BUFFER_HIT:    1777634  ROW_BUFFER_MISS:    2012407
 DBUS_CONGESTED:       1916
 WQ ROW_BUFFER_HIT:     576164  ROW_BUFFER_MISS:    2009876  FULL:      66608

 AVG_CONGESTED_CYCLE: 3
 All warmup complete: 2
Channel 0 Bank busy for read cycles: 0
Channel 0 Bank busy for write cycles: 0
Channel 0
Rank 0
0banks busy for read cycles: 180749389
0banks busy for write cycles: 261216
1banks busy for read cycles: 33557447
1banks busy for write cycles: 37125035
2banks busy for read cycles: 14362538
2banks busy for write cycles: 13294429
3banks busy for read cycles: 17112538
3banks busy for write cycles: 6097803
4banks busy for read cycles: 8878297
4banks busy for write cycles: 4000134
5banks busy for read cycles: 6047679
5banks busy for write cycles: 3398731
6banks busy for read cycles: 11153927
6banks busy for write cycles: 3469947
7banks busy for read cycles: 4712119
7banks busy for write cycles: 6012427
8banks busy for read cycles: 14717907
8banks busy for write cycles: 36021917

CPU 0 Branch Prediction Accuracy: 99.9446% MPKI: 0.08472 Average ROB Occupancy at Mispredict: 123.621
Branch types
NOT_BRANCH: 169425204 84.7126%
BRANCH_DIRECT_JUMP: 1658704 0.829352%
BRANCH_INDIRECT: 9991428 4.99571%
BRANCH_CONDITIONAL: 12080658 6.04033%
BRANCH_DIRECT_CALL: 2824054 1.41203%
BRANCH_INDIRECT_CALL: 597965 0.298982%
BRANCH_RETURN: 3421959 1.71098%
BRANCH_OTHER: 0 0%

DRAM PAGES: 1048576
Allocated PAGES: 9063
