
*** ChampSim Multicore Out-of-Order Simulator ***

Warmup Instructions: 50000000
Simulation Instructions: 200000000
Number of CPUs: 1
LLC sets: 2048
LLC ways: 16
Off-chip DRAM Size: 4096 MB Channels: 1 Width: 64-bit Data Rate: 6400 MT/s
CPU 0 runs traces/spec2k17/srv_71.champsimtrace.xz
.xz
BTB has LRU replacement policy
ITLB has LRU replacement policy
DTLB has LRU replacement policy
STLB has LRU replacement policy
L1I has LRU replacement policy
L1D has LRU replacement policy
Initialize SRRIP state for L2C
Initialize DRRIP state for LLC
Heartbeat CPU 0 instructions: 10000002 cycles: 2849049 heartbeat IPC: 3.50994 cumulative IPC: 3.50994 (Simulation time: 0 hr 0 min 35 sec) 
Heartbeat CPU 0 instructions: 20000000 cycles: 5691154 heartbeat IPC: 3.51852 cumulative IPC: 3.51423 (Simulation time: 0 hr 1 min 7 sec) 
Heartbeat CPU 0 instructions: 30000001 cycles: 8529824 heartbeat IPC: 3.52278 cumulative IPC: 3.51707 (Simulation time: 0 hr 1 min 41 sec) 
*** Reached end of trace for Core: 0 Repeating trace: traces/spec2k17/srv_71.champsimtrace.xz
Heartbeat CPU 0 instructions: 40000003 cycles: 11370028 heartbeat IPC: 3.52087 cumulative IPC: 3.51802 (Simulation time: 0 hr 2 min 16 sec) 
Heartbeat CPU 0 instructions: 50000003 cycles: 14210832 heartbeat IPC: 3.52013 cumulative IPC: 3.51844 (Simulation time: 0 hr 2 min 50 sec) 

Warmup complete CPU 0 instructions: 50000003 cycles: 14210832 (Simulation time: 0 hr 2 min 50 sec) 

Offsets elements: 
Potential of Offsets elements: 
rewards of Offsets elements: 
Printing Sanity1
offset list size2173
Offsets elements: 
Potential of Offsets elements: 
rewards of Offsets elements: 0 574 0 938 0 0 1727 0 0 0 0 1553 37 0 0 806 0 0 0 0 0 0 0 0 0 0 207 54 25 0 0 0 122 0 0 0 0 0 0 0 0 0 294 0 0 0 0 0 85 0 3 12 0 0 0 0 0 0 0 0 0 0 0 0 0 0 0 0 0 0 0 0 0 0 91 14 14 776 186 0 0 0 0 0 0 0 0 0 0 0 0 0 0 0 0 0 0 21 0 0 0 0 0 0 0 0 0 0 0 0 0 0 0 415 510 0 18 10 0 0 0 0 0 0 0 199 1056 636 0 0 342 0 0 754 65 80 0 0 5062 0 0 1579 320 0 0 0 0 0 0 0 1473 0 0 0 0 0 0 0 0 0 0 0 0 1717 0 0 0 0 0 0 2 16 0 0 0 0 0 0 0 0 0 0 0 0 0 9 0 0 370 0 0 0 0 0 0 0 0 0 1 0 0 0 0 0 0 0 21 0 0 4 0 0 0 0 0 0 0 0 0 8 0 0 0 0 0 0 0 0 0 0 21 0 0 0 0 0 0 95 0 0 0 0 0 0 0 0 0 0 0 0 0 21 0 0 1 0 0 0 0 0 0 0 0 0 0 0 0 0 63 0 0 92 16 0 0 0 0 0 0 342 0 0 0 1116 0 0 0 0 0 8 0 0 15 9 0 0 322 0 2640 0 0 0 0 56 0 0 0 51 0 0 70 0 0 0 4 0 0 0 0 0 0 0 0 0 0 0 0 0 0 0 0 0 38 0 0 2 0 4 0 0 0 0 0 23 0 0 0 0 0 0 0 0 125 14 40 227 0 0 0 0 0 0 0 0 194 0 0 0 0 0 0 0 0 0 0 0 0 1 0 52 0 0 0 0 0 0 0 0 0 0 0 0 0 0 0 0 0 2 3 0 0 0 0 0 0 0 0 0 0 0 0 0 0 1 0 0 0 0 0 0 0 0 0 0 0 0 0 299 28 0 0 0 0 0 0 0 0 0 0 146 29 0 0 0 0 0 272 271 0 0 0 0 0 0 0 0 0 0 0 0 0 55 2 199 0 0 0 378 0 0 0 0 0 0 0 0 0 9 0 8 0 301 0 0 0 0 0 0 0 0 0 0 0 0 0 0 0 0 0 0 0 0 0 0 0 0 0 0 0 0 0 0 0 0 0 0 0 0 0 0 0 0 0 100 0 0 0 0 0 0 0 0 0 0 0 0 0 0 0 0 0 0 5 0 365 12 0 0 0 0 0 0 0 0 0 0 0 0 0 105 5 0 0 0 0 970 0 0 188 0 0 0 0 0 0 0 0 0 0 0 0 0 0 0 0 0 826 0 0 0 0 0 0 0 0 0 0 0 0 2 57 0 0 0 0 0 0 7 0 0 0 0 0 0 0 0 0 0 2 9 0 0 0 0 0 0 0 69 128 0 0 0 0 0 0 0 0 0 0 0 0 0 0 0 0 0 0 0 48 95 0 0 0 0 0 255 0 10 0 0 0 0 0 0 0 0 0 0 0 79 19 0 0 0 0 0 0 0 0 0 0 0 0 0 0 0 0 0 210 0 0 9 0 0 0 0 0 0 0 0 0 0 0 0 0 0 0 10 0 0 48 119 0 0 0 0 0 0 0 0 0 0 0 0 0 0 0 0 9 0 0 134 0 0 0 0 0 0 0 0 0 0 0 0 0 0 0 0 0 0 0 0 8 0 0 0 0 0 0 0 0 0 0 0 0 0 0 0 0 0 0 0 0 0 0 0 0 0 0 0 0 0 0 0 0 0 0 0 0 0 0 0 0 0 0 0 0 0 0 0 0 0 0 0 149 0 0 0 0 0 0 0 0 0 0 0 0 0 0 0 0 0 0 0 0 0 0 147 0 0 0 0 0 0 0 0 0 0 0 0 93 5 20 101 0 0 0 0 0 0 0 0 0 0 0 0 0 0 0 0 33 0 0 0 0 0 0 0 0 0 0 0 0 0 0 0 0 0 0 0 0 0 0 15 152 0 0 91 296 0 0 0 0 0 6 0 0 0 0 0 0 0 0 0 0 0 0 0 1 45 0 0 0 0 0 192 231 0 0 0 0 0 0 0 5 0 0 8 0 0 13 0 0 0 0 0 0 14 0 0 0 0 0 0 0 0 0 0 0 0 0 140 0 0 0 0 0 0 0 0 0 0 0 0 0 3 0 0 0 6 0 0 2 0 0 0 0 357 347 0 0 0 0 14 0 0 0 0 0 0 0 0 0 0 0 0 0 0 0 0 0 0 0 0 0 0 22 14 0 0 12 0 0 0 0 0 0 0 0 0 0 0 0 0 0 0 0 0 0 0 0 0 0 0 1 30 0 0 0 8 0 0 0 0 0 0 0 0 0 0 0 0 0 0 0 0 0 0 0 0 220 0 0 0 0 0 0 0 0 0 0 0 0 0 0 0 0 0 0 0 0 0 0 0 0 0 0 144 0 372 0 0 0 0 0 0 0 0 0 0 0 49 0 0 0 0 0 6 51 0 0 0 0 0 0 45 0 0 0 0 0 6 0 0 0 0 0 0 0 0 0 0 0 0 0 0 0 0 0 0 0 0 3 0 0 0 0 0 0 4 47 0 0 186 0 0 1 0 0 0 0 1 0 98 0 0 0 0 0 0 0 0 0 0 463 0 0 1 0 0 0 0 0 0 0 0 0 0 0 0 0 12 0 0 0 0 0 0 7 0 0 1 0 1 0 68 0 0 14 0 0 0 0 0 0 0 0 3 0 0 0 0 0 0 0 0 0 2 0 0 0 0 0 38 31 0 18 0 0 0 0 0 0 0 0 0 0 0 0 0 0 0 0 0 0 0 0 0 0 0 0 0 0 0 0 0 0 89 0 0 0 0 0 0 9 102 23 0 0 0 0 93 0 0 0 0 0 0 6 0 0 0 0 0 349 0 0 0 0 0 0 0 0 0 3 0 0 0 0 0 0 0 24 0 0 0 0 298 0 0 0 0 0 48 0 0 0 88 0 0 0 0 0 0 0 0 0 0 0 0 0 0 0 0 0 0 0 0 0 0 0 0 0 0 0 0 0 0 0 0 0 0 0 0 0 0 0 0 0 0 0 0 0 0 0 0 0 0 41 0 0 83 0 0 0 0 76 0 6 24 620 0 0 0 0 0 0 0 0 0 0 23 0 0 0 0 0 0 0 0 228 0 0 0 0 0 0 0 0 0 0 0 0 0 0 0 0 0 0 0 0 0 195 0 62 55 360 146 0 0 0 80 36 0 0 0 0 0 0 0 0 0 0 0 1 0 0 0 0 0 0 0 0 0 0 0 0 0 0 0 0 0 2 0 0 2 4 6 0 57 0 0 26 23 138 0 0 0 0 0 0 0 0 0 0 0 0 0 0 0 0 0 0 0 0 0 0 0 0 0 0 0 0 0 0 0 0 0 0 0 0 0 0 0 0 0 20 0 0 0 0 0 0 0 0 0 0 0 0 0 0 0 0 0 0 0 452 0 0 12 0 0 0 0 0 8 228 0 0 0 0 0 0 0 0 0 18 1209 0 3 4 0 8 0 0 0 0 0 0 0 0 0 0 0 0 0 0 0 0 0 0 0 0 0 0 0 0 0 0 0 0 0 0 0 0 0 0 0 66 0 0 4 0 0 0 12 12 0 0 56 0 0 0 0 0 0 0 0 0 61 0 0 0 0 0 0 0 0 0 0 0 0 0 0 0 0 0 0 0 0 64 0 15 0 0 0 0 0 499 450 145 1 0 0 0 0 0 0 0 2 0 1 0 0 0 0 0 0 0 0 3 0 0 0 0 0 0 0 0 0 0 647 308 351 0 0 0 0 0 0 4 0 9 0 0 0 0 0 0 0 0 0 0 0 0 0 0 0 0 0 0 0 0 0 0 0 0 0 0 0 0 0 0 0 51 7 0 0 0 0 0 0 4 8 158 0 0 0 0 0 0 0 0 3 0 0 0 0 0 0 0 0 0 0 0 0 0 0 0 0 0 0 0 0 15 0 697 0 0 0 0 0 0 0 0 0 0 0 0 0 0 0 0 0 0 0 0 0 0 0 0 0 0 0 0 0 0 0 0 0 0 0 19 0 0 0 0 0 78 0 0 283 0 0 0 0 0 0 2 0 0 0 0 1 0 0 7 0 177 0 0 0 0 0 0 0 0 0 0 0 0 0 0 0 0 0 0 96 0 55 15 1 2 0 0 0 0 16 0 0 0 1 0 0 0 0 0 0 0 0 0 0 0 0 0 0 0 0 0 0 0 0 0 0 0 0 0 0 0 0 22 0 90 0 0 0 0 0 0 153 5 0 0 0 0 0 0 0 0 0 0 0 0 0 168 0 0 0 0 0 0 0 0 0 0 0 0 0 0 0 0 0 0 0 9 57 0 0 0 0 0 0 0 0 0 0 0 0 0 0 0 0 0 0 0 0 0 0 0 0 0 0 0 0 0 0 0 0 0 0 0 0 0 0 0 0 0 0 0 0 0 0 0 0 0 0 0 0 0 0 0 0 0 0 0 0 0 0 0 0 0 0 0 0 0 0 0 0 0 0 0 0 0 0 0 0 3 0 23 0 28 0 0 0 0 19 0 0 0 0 0 0 0 0 0 0 0 0 48 0 382 0 0 0 0 0 0 0 0 0 0 0 0 0 0 0 24 0 2 14 348 0 0 0 8 50 0 1 0 0 0 0 0 0 0 0 0 0 0 117 0 0 0 0 0 0 0 0 0 0 0 0 0 0 0 0 0 0 0 504 0 0 110 0 255 0 0 0 0 0 0 0 0 0 0 0 0 0 46 0 0 0 0 0 0 0 0 0 0 0 0 0 0 0 0 0 0 0 0 0 0 1 0 0 76 6 0 0 0 0 60 8 6 0 0 0 0 0 0 0 0 0 0 
Printing Sanity2
Heartbeat CPU 0 instructions: 60000000 cycles: 46806954 heartbeat IPC: 0.306785 cumulative IPC: 0.306785 (Simulation time: 0 hr 3 min 58 sec) 
*** Reached end of trace for Core: 0 Repeating trace: traces/spec2k17/srv_71.champsimtrace.xz
Heartbeat CPU 0 instructions: 70000000 cycles: 79375230 heartbeat IPC: 0.307047 cumulative IPC: 0.306916 (Simulation time: 0 hr 5 min 5 sec) 
Heartbeat CPU 0 instructions: 80000002 cycles: 111960382 heartbeat IPC: 0.306888 cumulative IPC: 0.306907 (Simulation time: 0 hr 6 min 13 sec) 
Heartbeat CPU 0 instructions: 90000001 cycles: 144511613 heartbeat IPC: 0.307208 cumulative IPC: 0.306982 (Simulation time: 0 hr 7 min 19 sec) 
*** Reached end of trace for Core: 0 Repeating trace: traces/spec2k17/srv_71.champsimtrace.xz
Heartbeat CPU 0 instructions: 100000003 cycles: 177024814 heartbeat IPC: 0.307567 cumulative IPC: 0.307099 (Simulation time: 0 hr 8 min 28 sec) 
Heartbeat CPU 0 instructions: 110000000 cycles: 209569510 heartbeat IPC: 0.30727 cumulative IPC: 0.307127 (Simulation time: 0 hr 9 min 34 sec) 
Heartbeat CPU 0 instructions: 120000001 cycles: 242139643 heartbeat IPC: 0.30703 cumulative IPC: 0.307113 (Simulation time: 0 hr 10 min 41 sec) 
*** Reached end of trace for Core: 0 Repeating trace: traces/spec2k17/srv_71.champsimtrace.xz
Heartbeat CPU 0 instructions: 130000000 cycles: 274654015 heartbeat IPC: 0.307556 cumulative IPC: 0.307169 (Simulation time: 0 hr 11 min 47 sec) 
Heartbeat CPU 0 instructions: 140000000 cycles: 307187854 heartbeat IPC: 0.307372 cumulative IPC: 0.307191 (Simulation time: 0 hr 12 min 54 sec) 
Heartbeat CPU 0 instructions: 150000001 cycles: 339722289 heartbeat IPC: 0.307367 cumulative IPC: 0.307209 (Simulation time: 0 hr 14 min 0 sec) 
*** Reached end of trace for Core: 0 Repeating trace: traces/spec2k17/srv_71.champsimtrace.xz
Heartbeat CPU 0 instructions: 160000000 cycles: 372223345 heartbeat IPC: 0.307682 cumulative IPC: 0.307252 (Simulation time: 0 hr 15 min 8 sec) 
Heartbeat CPU 0 instructions: 170000000 cycles: 404744086 heartbeat IPC: 0.307496 cumulative IPC: 0.307272 (Simulation time: 0 hr 16 min 14 sec) 
Heartbeat CPU 0 instructions: 180000000 cycles: 437278992 heartbeat IPC: 0.307362 cumulative IPC: 0.307279 (Simulation time: 0 hr 17 min 16 sec) 
*** Reached end of trace for Core: 0 Repeating trace: traces/spec2k17/srv_71.champsimtrace.xz
Heartbeat CPU 0 instructions: 190000003 cycles: 469792702 heartbeat IPC: 0.307563 cumulative IPC: 0.307299 (Simulation time: 0 hr 18 min 5 sec) 
Heartbeat CPU 0 instructions: 200000000 cycles: 502326799 heartbeat IPC: 0.30737 cumulative IPC: 0.307304 (Simulation time: 0 hr 18 min 59 sec) 
Heartbeat CPU 0 instructions: 210000001 cycles: 534862753 heartbeat IPC: 0.307352 cumulative IPC: 0.307307 (Simulation time: 0 hr 19 min 56 sec) 
*** Reached end of trace for Core: 0 Repeating trace: traces/spec2k17/srv_71.champsimtrace.xz
Heartbeat CPU 0 instructions: 220000000 cycles: 567327538 heartbeat IPC: 0.308026 cumulative IPC: 0.307349 (Simulation time: 0 hr 20 min 43 sec) 
Heartbeat CPU 0 instructions: 230000000 cycles: 599864453 heartbeat IPC: 0.307343 cumulative IPC: 0.307349 (Simulation time: 0 hr 21 min 29 sec) 
Heartbeat CPU 0 instructions: 240000003 cycles: 632455330 heartbeat IPC: 0.306834 cumulative IPC: 0.307322 (Simulation time: 0 hr 22 min 12 sec) 
Heartbeat CPU 0 instructions: 250000003 cycles: 664898684 heartbeat IPC: 0.30823 cumulative IPC: 0.307367 (Simulation time: 0 hr 23 min 4 sec) 
Finished CPU 0 instructions: 200000000 cycles: 650687852 cumulative IPC: 0.307367 (Simulation time: 0 hr 23 min 4 sec) 

ChampSim completed all CPUs

Region of Interest Statistics

CPU 0 cumulative IPC: 0.307367 instructions: 200000000 cycles: 650687852
ITLB TOTAL     ACCESS:   35732430  HIT:   33460820  MISS:    2271610  HIT %:    93.6427  MISS %:    6.35728   MPKI: 11.3581
ITLB LOAD TRANSLATION ACCESS:   35732430  HIT:   33460820  MISS:    2271610  HIT %:    93.6427  MISS %:    6.35728   MPKI: 11.3581
ITLB PREFETCH  REQUESTED:          0  ISSUED:          0  USEFUL:          0  USELESS:          0
ITLB USEFUL LOAD PREFETCHES:          0 PREFETCH ISSUED TO LOWER LEVEL:          0  ACCURACY: -nan
ITLB TIMELY PREFETCHES:          0 LATE PREFETCHES: 0 DROPPED PREFETCHES: 0
ITLB PREFETCHES SAME FILL-ORIGIN LEVEL: 0 DIFFERENT FILL-ORIGIN LEVEL: 0
ITLB AVERAGE MISS LATENCY: 9.14275 cycles
ITLB RQ	ACCESS:   42028734	FORWARD:          0	MERGED:    5753555	TO_CACHE:   36275179

DTLB TOTAL     ACCESS:   45907398  HIT:   43849219  MISS:    2058179  HIT %:    95.5167  MISS %:    4.48333   MPKI: 10.2909
DTLB LOAD TRANSLATION ACCESS:   45907398  HIT:   43849219  MISS:    2058179  HIT %:    95.5167  MISS %:    4.48333   MPKI: 10.2909
DTLB PREFETCH  REQUESTED:          0  ISSUED:          0  USEFUL:          0  USELESS:          0
DTLB USEFUL LOAD PREFETCHES:          0 PREFETCH ISSUED TO LOWER LEVEL:          0  ACCURACY: -nan
DTLB TIMELY PREFETCHES:          0 LATE PREFETCHES: 0 DROPPED PREFETCHES: 0
DTLB PREFETCHES SAME FILL-ORIGIN LEVEL: 0 DIFFERENT FILL-ORIGIN LEVEL: 0
DTLB AVERAGE MISS LATENCY: 9.2399 cycles
DTLB RQ	ACCESS:   60729437	FORWARD:          0	MERGED:   14760539	TO_CACHE:   45968898

STLB TOTAL     ACCESS:    4329958  HIT:    4300846  MISS:      29112  HIT %:    99.3277  MISS %:   0.672339   MPKI: 0.14556
STLB LOAD TRANSLATION ACCESS:    4329789  HIT:    4300677  MISS:      29112  HIT %:    99.3276  MISS %:   0.672365   MPKI: 0.14556
STLB TRANSLATION FROM L1D PREFETCHER ACCESS:        169  HIT:        169  MISS:          0  HIT %:        100  MISS %:          0   MPKI: 0
STLB PREFETCH  REQUESTED:          0  ISSUED:          0  USEFUL:          0  USELESS:          0
STLB USEFUL LOAD PREFETCHES:          0 PREFETCH ISSUED TO LOWER LEVEL:          0  ACCURACY: -nan
STLB TIMELY PREFETCHES:          0 LATE PREFETCHES: 0 DROPPED PREFETCHES: 2759177
STLB PREFETCHES SAME FILL-ORIGIN LEVEL: 0 DIFFERENT FILL-ORIGIN LEVEL: 0
STLB AVERAGE MISS LATENCY: 27.1497 cycles
STLB RQ	ACCESS:    7117233	FORWARD:          0	MERGED:      22214	TO_CACHE:    7095019

STLB Hit, L1D data hit: 0
STLB Hit, L2C data hit: 0
STLB Hit, LLC data hit: 0
STLB Hit, LLC data miss: 0
STLB STLB hints to L2: 0
L1D TOTAL     ACCESS:   58753986  HIT:   53116358  MISS:    5637628  HIT %:    90.4047  MISS %:    9.59531   MPKI: 28.1881
L1D LOAD      ACCESS:   34029496  HIT:   29621583  MISS:    4407913  HIT %:    87.0468  MISS %:    12.9532   MPKI: 22.0396
L1D RFO       ACCESS:   24724320  HIT:   23494624  MISS:    1229696  HIT %:    95.0264  MISS %:    4.97363   MPKI: 6.14848
L1D PREFETCH  ACCESS:        170  HIT:        151  MISS:         19  HIT %:    88.8235  MISS %:    11.1765   MPKI: 9.5e-05
AGUS PREFETCH L1 MISS: 0
L1D PREFETCH  REQUESTED:    5822436  ISSUED:    5822436  USEFUL:          2  USELESS:         17
L1D USEFUL LOAD PREFETCHES:          2 PREFETCH ISSUED TO LOWER LEVEL:         19  ACCURACY: 10.5263
L1D TIMELY PREFETCHES:          2 LATE PREFETCHES: 0 DROPPED PREFETCHES: 2787271
L1D PREFETCHES SAME FILL-ORIGIN LEVEL: 19 DIFFERENT FILL-ORIGIN LEVEL: 0
L1D AVERAGE MISS LATENCY: 17.2604 cycles
L1D RQ	ACCESS:   46537774	FORWARD:          0	MERGED:   12026146	TO_CACHE:   34192301
L1D WQ	ACCESS:   26687093	FORWARD:     319327	MERGED:     149957	TO_CACHE:   26537136
L1D PQ	ACCESS:    3034992	FORWARD:          0	MERGED:     247548	TO_CACHE:    2787444

L1D UNIQUE REGIONS ACCESSED: 0
L1D REGIONS CONFLICTS: 0
L1D Cross Page Prefetch Requests: 3034816
L1D Same Page Prefetch Requests: 176
L1D ROI Sum of L1D PQ occupancy: 89353058
L1D PREFETCHES PUSHED FROM L2C: 0
L1I TOTAL     ACCESS:   40345054  HIT:   28857159  MISS:   11487895  HIT %:    71.5259  MISS %:    28.4741   MPKI: 57.4395
L1I LOAD      ACCESS:   40345054  HIT:   28857159  MISS:   11487895  HIT %:    71.5259  MISS %:    28.4741   MPKI: 57.4395
L1I PREFETCH  REQUESTED:          0  ISSUED:          0  USEFUL:          0  USELESS:          0
L1I USEFUL LOAD PREFETCHES:          0 PREFETCH ISSUED TO LOWER LEVEL:          0  ACCURACY: -nan
L1I TIMELY PREFETCHES:          0 LATE PREFETCHES: 0 DROPPED PREFETCHES: 0
L1I PREFETCHES SAME FILL-ORIGIN LEVEL: 0 DIFFERENT FILL-ORIGIN LEVEL: 0
L1I AVERAGE MISS LATENCY: 15.3938 cycles
L1I RQ	ACCESS:   58262259	FORWARD:          0	MERGED:   16233525	TO_CACHE:   42028734

BTB TOTAL     ACCESS:   30381247  HIT:   17587956  MISS:   12793291  HIT %:    57.8908  MISS %:    42.1092   MPKI: 63.9665
BTB BRANCH_DIRECT_JUMP	ACCESS:    1874465  HIT:    1039962  MISS:     834503
BTB BRANCH_INDIRECT	ACCESS:   12070930  HIT:    7181477  MISS:    4889453
BTB BRANCH_CONDITIONAL	ACCESS:    7200933  HIT:    5892738  MISS:    1308195
BTB BRANCH_DIRECT_CALL	ACCESS:    3894488  HIT:    1805611  MISS:    2088877
BTB BRANCH_INDIRECT_CALL	ACCESS:     722993  HIT:     337731  MISS:     385262
BTB BRANCH_RETURN	ACCESS:    4617438  HIT:    1330437  MISS:    3287001
BTB BRANCH_OTHER ACCESS:          0  HIT:          0  MISS:          0

L2C TOTAL     ACCESS:   22270864  HIT:   21341918  MISS:     928946  HIT %:    95.8289  MISS %:    4.17113   MPKI: 4.64473
L2C LOAD      ACCESS:   15895807  HIT:   15052311  MISS:     843496  HIT %:    94.6936  MISS %:    5.30641   MPKI: 4.21748
L2C DATA LOAD MPKI: 1.70243
L2C INSTRUCTION LOAD MPKI: 2.51505
L2C RFO       ACCESS:    1229696  HIT:    1169617  MISS:      60079  HIT %:    95.1143  MISS %:    4.88568   MPKI: 0.300395
L2C PREFETCH  ACCESS:         19  HIT:          3  MISS:         16  HIT %:    15.7895  MISS %:    84.2105   MPKI: 8e-05
AGUS PREFETCH L1 MISS: 0
L2C DATA PREFETCH MPKI: 8e-05
L2C INSTRUCTION PREFETCH MPKI: 0
L2C WRITEBACK ACCESS:    2355668  HIT:    2337262  MISS:      18406  HIT %:    99.2187  MISS %:   0.781349   MPKI: 0.09203
L2C LOAD TRANSLATION ACCESS:      30497  HIT:      23550  MISS:       6947  HIT %:    77.2207  MISS %:    22.7793   MPKI: 0.034735
L2C TRANSLATION FROM L1D PREFETCHER ACCESS:    2759177  HIT:    2759175  MISS:          2  HIT %:    99.9999  MISS %: 7.24854e-05   MPKI: 1e-05
L2C PREFETCH  REQUESTED:          0  ISSUED:          0  USEFUL:          2  USELESS:         16
L2C USEFUL LOAD PREFETCHES:          2 PREFETCH ISSUED TO LOWER LEVEL:         16  ACCURACY: 12.5
L2C TIMELY PREFETCHES:          2 LATE PREFETCHES: 0 DROPPED PREFETCHES: 0
L2C PREFETCHES SAME FILL-ORIGIN LEVEL: 0 DIFFERENT FILL-ORIGIN LEVEL: 0
L2C AVERAGE MISS LATENCY: 30.0058 cycles
L2C RQ	ACCESS:   19915179	FORWARD:          0	MERGED:          0	TO_CACHE:   19915178
L2C WQ	ACCESS:    2355668	FORWARD:          1	MERGED:          0	TO_CACHE:    2355668
L2C PQ	ACCESS:         19	FORWARD:          0	MERGED:          0	TO_CACHE:         19

L2C Instructions Evicting Data 208670
L2C Translations Evicting Data 3851
L2C Data Evicting Data 199676
L2C Instructions Evicting Instructions 291812
L2C Translations Evicting Instructions 2887
L2C Data Evicting Instructions 196748
L2C Instructions Evicting Translations 2528
L2C Translations Evicting Translations 211
L2C Data Evicting Translations 4157
L2C Dense regions hint from L2: 0
PSCL5 TOTAL     ACCESS:    2788289  HIT:    2788289  MISS:          0  HIT %:        100  MISS %:          0   MPKI: 0
PSCL5 LOAD TRANSLATION ACCESS:      29112  HIT:      29112  MISS:          0  HIT %:        100  MISS %:          0   MPKI: 0
PSCL5 TRANSLATION FROM L1D PREFETCHER ACCESS:    2759177  HIT:    2759177  MISS:          0  HIT %:        100  MISS %:          0   MPKI: 0
PSCL5 PREFETCH  REQUESTED:          0  ISSUED:          0  USEFUL:          0  USELESS:          0
PSCL5 USEFUL LOAD PREFETCHES:          0 PREFETCH ISSUED TO LOWER LEVEL:          0  ACCURACY: -nan
PSCL5 TIMELY PREFETCHES:          0 LATE PREFETCHES: 0 DROPPED PREFETCHES: 0
PSCL5 PREFETCHES SAME FILL-ORIGIN LEVEL: 0 DIFFERENT FILL-ORIGIN LEVEL: 0

PSCL4 TOTAL     ACCESS:      26181  HIT:      26028  MISS:        153  HIT %:    99.4156  MISS %:   0.584393   MPKI: 0.000765
PSCL4 LOAD TRANSLATION ACCESS:      26181  HIT:      26028  MISS:        153  HIT %:    99.4156  MISS %:   0.584393   MPKI: 0.000765
PSCL4 PREFETCH  REQUESTED:          0  ISSUED:          0  USEFUL:          0  USELESS:          0
PSCL4 USEFUL LOAD PREFETCHES:          0 PREFETCH ISSUED TO LOWER LEVEL:          0  ACCURACY: -nan
PSCL4 TIMELY PREFETCHES:          0 LATE PREFETCHES: 0 DROPPED PREFETCHES: 0
PSCL4 PREFETCHES SAME FILL-ORIGIN LEVEL: 0 DIFFERENT FILL-ORIGIN LEVEL: 0

PSCL3 TOTAL     ACCESS:      28294  HIT:      28141  MISS:        153  HIT %:    99.4592  MISS %:   0.540751   MPKI: 0.000765
PSCL3 LOAD TRANSLATION ACCESS:      28294  HIT:      28141  MISS:        153  HIT %:    99.4592  MISS %:   0.540751   MPKI: 0.000765
PSCL3 PREFETCH  REQUESTED:          0  ISSUED:          0  USEFUL:          0  USELESS:          0
PSCL3 USEFUL LOAD PREFETCHES:          0 PREFETCH ISSUED TO LOWER LEVEL:          0  ACCURACY: -nan
PSCL3 TIMELY PREFETCHES:          0 LATE PREFETCHES: 0 DROPPED PREFETCHES: 0
PSCL3 PREFETCHES SAME FILL-ORIGIN LEVEL: 0 DIFFERENT FILL-ORIGIN LEVEL: 0

PSCL2 TOTAL     ACCESS:      29112  HIT:      28033  MISS:       1079  HIT %:    96.2936  MISS %:    3.70638   MPKI: 0.005395
PSCL2 LOAD TRANSLATION ACCESS:      29112  HIT:      28033  MISS:       1079  HIT %:    96.2936  MISS %:    3.70638   MPKI: 0.005395
PSCL2 PREFETCH  REQUESTED:          0  ISSUED:          0  USEFUL:          0  USELESS:          0
PSCL2 USEFUL LOAD PREFETCHES:          0 PREFETCH ISSUED TO LOWER LEVEL:          0  ACCURACY: -nan
PSCL2 TIMELY PREFETCHES:          0 LATE PREFETCHES: 0 DROPPED PREFETCHES: 0
PSCL2 PREFETCHES SAME FILL-ORIGIN LEVEL: 0 DIFFERENT FILL-ORIGIN LEVEL: 0

LLC TOTAL     ACCESS:     998355  HIT:     994604  MISS:       3751  HIT %:    99.6243  MISS %:   0.375718   MPKI: 0.018755
LLC LOAD      ACCESS:     843496  HIT:     840194  MISS:       3302  HIT %:    99.6085  MISS %:   0.391466   MPKI: 0.01651
LLC RFO       ACCESS:      60079  HIT:      59692  MISS:        387  HIT %:    99.3558  MISS %:   0.644152   MPKI: 0.001935
LLC PREFETCH  ACCESS:         16  HIT:          5  MISS:         11  HIT %:      31.25  MISS %:      68.75   MPKI: 5.5e-05
AGUS PREFETCH L1 MISS: 0
LLC WRITEBACK ACCESS:      87815  HIT:      87811  MISS:          4  HIT %:    99.9954  MISS %: 0.00455503   MPKI: 2e-05
LLC LOAD TRANSLATION ACCESS:       6947  HIT:       6901  MISS:         46  HIT %:    99.3378  MISS %:   0.662156   MPKI: 0.00023
LLC TRANSLATION FROM L1D PREFETCHER ACCESS:          2  HIT:          1  MISS:          1  HIT %:         50  MISS %:         50   MPKI: 5e-06
LLC PREFETCH  REQUESTED:          0  ISSUED:          0  USEFUL:          1  USELESS:          2
LLC USEFUL LOAD PREFETCHES:          1 PREFETCH ISSUED TO LOWER LEVEL:         11  ACCURACY: 9.09091
LLC TIMELY PREFETCHES:          1 LATE PREFETCHES: 0 DROPPED PREFETCHES: 0
LLC PREFETCHES SAME FILL-ORIGIN LEVEL: 0 DIFFERENT FILL-ORIGIN LEVEL: 0
LLC AVERAGE MISS LATENCY: 148.63 cycles
LLC RQ	ACCESS:     910525	FORWARD:          0	MERGED:          0	TO_CACHE:     910525
LLC WQ	ACCESS:      87815	FORWARD:          0	MERGED:          0	TO_CACHE:      87815
LLC PQ	ACCESS:         16	FORWARD:          0	MERGED:          0	TO_CACHE:         16

LLC Dense regions hint to LLC: 0

RAW hits: 1446746
Loads Generated: 47984521
Loads sent to L1D: 46537774
Stores Generated: 26687087
Stores sent to L1D: 26687093
Major fault: 0 Minor fault: 1956
Allocated PAGES: 1956
ucb ended
-----------------------------------------------------------------------------------------------------------------------------------------------------------------------------------------------------
Offsets elements: -10322854 -2 10322855 -1 10322858 -10322858 2 10322853 -10308575 -14280 10322857 1 35 -14846857 4538250 3 -28256 10336860 -10336859 -2200619280137 2200619280085 10336911 -2200629500565 2200619163653 -58171 58231 -52 44 52 -58223 10395078 -10336910 28302 -28302 28250 10308606 -10336911 28308 -28254 2200629616999 -10308607 10308604 -35 -10336801 28233 -22689 22690 13439 -13 -207744 -2200619082266 82368 2200619207654 -2200619207457 2200629501191 -10307175 13441 -13440 10307174 -10307174 13440 -13439 10293734 2506 -10309680 -2200619194017 2200619194016 10311673 -2200629505689 2200629504263 -3072 -10293734 3072 -10310246 10296806 -2200629504460 2200629504460 9 -9 -10296806 10310246 10310244 -10310244 13423 -13421 -61390 61392 10312545 -10312544 10311689 -10311692 -2200619194228 2200619194231 10311685 -10311685 10311568 -10311570 -294255 10605930 -10311673 10309663 -2200629472974 2200619163311 -294257 294260 -294260 294259 -294261 294262 -13380 -7991 7991 -7985 -6 -7 -2200619172865 2200619172863 21378 -21395 8014 -48034 -72465880889 72465942304 -13379 -8009 17 -5 5 21372 -21378 12 -2200619172060 2200619172054 7 -18 10 -2200619172863 -21372 -4 -2200619172061 2200619172053 8 -19 -2200619172853 2200619172857 -12847247 12868634 -21396 -272876 294273 -3 -2200619148298 2200619148303 21394 -21397 10603920 2200619163326 -294272 -12868643 12901876 -33235 -294279 294286 4 -288223780701800521 -63 -1465993202282 1465993202283 -1465992179066 -1223447 17938 1465993384574 1465992179065 -1465993402547 1465993402548 2587624 -2587625 -1465993402546 201524 -201527 1465993402549 2587623 -2587624 -1465992367369 -1045730 1045730 -1035178 1465993201021 -1465993402549 20623 1465995969549 -2587520 -1465993402541 21470 48939 -70409 29416 -7958 48954 -70523 1465993402550 2587622 -2587623 2587621 -2587621 -1465992179074 -1223482 7405 909 7670 56661 20024 -90645 -23493 21450 1465993380989 -1465993378946 -23494 2023 5382 8579 20023 -76685 -13960 13960 20025 13957 -13958 -23492 21467 2025 8578 1465993364984 -1465993308323 1465993308322 -1465993378944 13958 -46 47 1465993364986 -1465993402438 1465993380988 -1465993402550 1465993402551 -2587619 -1465992287664 -1114889 70409 -21581 -1465993372867 1465995960489 -1465995968602 48953 129076 -199595 160048 -141609 -21926 163535 -160052 -3483 1465995993655 -1465995830118 906 -908 -170600 212075 1465993201024 -1465993201024 -41475 1465993242499 -1465993402551 160052 1465995830120 -1465995993654 1465993406033 -1465993402548 1465993402652 1465995990061 -1465995968607 -54698 1019356 -1035181 1465995990172 -1465995990169 1465993201022 -1465992367366 1465994954990 -1465995830120 875129 1465992367368 -1465993402554 160960 1465995829212 -1465996000720 10548 1465993402554 2587618 -1465995990172 160961 1465993241589 -1465994954991 10549 -1465995989886 1465995931853 -345 58378 -4961 -2582664 -833654 -1465993201022 833654 -875126 916499 -41371 1465992367367 1076555 -41374 1465994954991 -1465996000689 1087074 -1076557 -1465995971698 181783 -199975 1465995935524 -2533199 -78 288223780712110508 -10604195 -2200619016727 2200619016727 23 112665 -112665 -51234 -384124 650182 -33236 33235 -33238 -12868641 12868644 33233 -2200619309661 2200606407784 12847238 2200619148301 272876 -10309647 -2200619163327 2200619163328 -21400 14 -20 21 21402 -294276 272877 21383 -2200619193435 2200619172056 21381 -21383 -16 21395 -232511 232510 -272875 -2200619148301 294271 10309649 -10309648 -2200619163326 2200619141931 21399 -294273 26 10603894 -10603920 -2200618899777 19 2200629505670 -10311657 10310219 -10310218 10311611 -10311611 10311646 -10605913 10605913 -2200629505677 2448 2200619191579 10311647 -10311647 -2200629505670 2200618899769 10605901 -10605912 -2200619014168 2200619014160 55576 -55574 10605911 -10605910 55573 55574 -55573 -294259 294287 -294258 -2200618897292 -446 2200629501937 -10309963 -294240 294240 -48227 48228 10605907 -10550337 55572 -55572 55571 55575 -55548 -30 30 10605847 -10605876 238688 -2200619194041 2200629505466 -10605685 -238688 45654 10560223 -10560224 33 -10560255 248605 -248604 10560220 -10560222 10560221 32 -33 -10560223 9920 10550303 -10560221 10560222 -10560226 -10311615 -248606 9918 -9922 -970888 1219496 10311615 -10311613 -294252 -15 10605878 -2200629620034 2200629620035 36 -10311646 -2200619194241 2200629505889 2200629505675 -14864144 4552495 -2200619194027 2200614641531 14864110 -34 -2200619308424 -2200619014157 2200619014159 294264 -294262 248609 -248609 10311645 -10311645 -294267 10605879 -10605859 -991323 991336 86346 -86346 10605900 -10605900 1285589 -1285566 294220 -2200619151239 2200617865652 1285603 -1285567 -3237427 3237390 11597248 -14834604 14834640 -14834638 3237389 -3237388 14832642 -2200629503697 2200629504003 -14862457 29508 14832643 -2200629503678 33466 -10092 2200614647658 -2200614637566 2200614637567 -2200614671039 2200629504401 -11595973 11595256 2200629473691 -2200629504609 2200629504607 33794 -33792 2522 -50 2200629503424 -2200629503415 31 2200629503390 -2200629503381 2200614668726 14834391 -1746 -2200629503684 2200629504250 -14833212 14833212 -14833213 14833213 -14833214 14833214 132 -14833344 -2200614637569 -2200614647659 -23374 2200629504397 -2200629504401 2200629505656 14834642 -38 34 -14834637 -2200629505692 2200629505658 -1245 -17 -14833363 14833345 18 -10319595 10319595 10319578 -14833347 14833346 -10319577 10319576 1491 -2200629505884 2200614647653 14834856 -14834856 -10321363 1769 10319594 -14833364 14833363 14833343 14834853 -1489 -14833361 14833362 3237387 2200629503682 -14832643 -2200614637460 2200629471992 -14834532 11595820 -2200629501934 -41 40 2200629501936 -14833209 -2200614670690 2200614670690 -2200617878022 2200629473278 1806 -2200629474780 2200629474972 -11597254 -1704 -14832901 14833207 11595973 -2200629504395 2200614647660 14833361 -717 717 -2200629504415 2200629505690 -1275 -14833362 -2200629470821 -33794 2200629505852 -14834602 -2200614671250 31284 2200614639966 14833360 -14833345 14833344 -14833346 4513768 -4513767 -14833343 2200629470820 -10321346 10321363 -10319594 -4513768 2200614647656 -14834853 -14833360 -14833342 -2200629504611 2200614671251 14834641 -14834641 3237388 -11595256 -2200617908422 2200629505701 -12 -1427 1393 -11597249 -14834639 3237391 11597214 -14834605 -2200618022824 2200629620039 -14834609 4274384 10560224 10560225 -31 10550304 -10560225 -4274386 -14834643 4274386 9919 -4284306 4228782 55522 -55522 10550334 -10550334 -55524 -4228784 -10605857 -4228783 14834606 -11597215 20 11597229 -10605850 10605849 -10605848 -2200618899821 2200618899822 -991388 11597236 -11597236 991388 10604113 -10604126 -4228778 4228815 -991379 -2200618857040 2200618857024 293922 -293959 -10519519 207652 10311903 -10311902 -293961 293963 -293964 272794 21170 -21170 -272794 293964 10603868 2200619163070 -21171 -211068 232238 -232238 232236 -21155 -39990 -72465880900 72465920910 -11 -31651 31641 -31638 31640 -31643 31650 -172931 -2200618975390 2200618975390 -94453 227398 8335 31642 -191725 191725 -31659 31659 -191724 191729 -191729 21151 -21147 -31658 -31641 31663 -31665 31660 -31663 31645 8009 -2200619178186 2200619191324 -21150 -2200619172835 2200619172847 -2200619172823 2200619180846 -2200619180846 2200619172833 21150 -21144 21146 -31664 -2200619139159 2200619160304 -52807 -160068 191730 21149 -52809 31654 -191722 -2200618980267 -845 2200619172841 8023 -8008 8008 -8023 13141 -13141 -8000 8001 -8005 8003 -8006 8006 13142 -13142 13139 -13139 13138 -21146 21148 -8027 8026 -2200619156298 2200619148270 13136 -13135 -162944 162945 -3744303843 3739760417 14868639 -10312079 -13136 -2200619180279 2200614636860 -3739760270 3754628896 -14868626 14868626 -10312076 -21141 -21 -2200619172840 2200619172840 21144 -2200619193179 -810 21143 -21143 -172924 2200619276353 -21140 21145 -21142 -10 -2200619171988 2200619193141 -21152 -2200619171989 2200619171995 -2200619193138 2200619193137 21154 21142 2200619171989 21152 -21169 -40003 -2200619131993 2200619171997 -2200619193984 2200619172842 -2200619172031 2200619172015 21159 31657 -191723 -52811 31665 -31662 -31660 52817 -212884 212884 -21148 31667 -2200619172846 2200619193987 -21167 -31642 -2200619116629 21166 -52810 31656 -31655 -160044 160043 2200619172835 6 52809 31666 -22 -23 211065 21168 -21165 -12847227 12868389 -21154 -2200619082265 2200619255202 2200619193143 -21153 -2200619172637 -10328554 10307403 10328554 -10309909 -2200619193788 2200619193789 10311901 10331626 -10331626 10310474 10310475 -10310473 -72465880899 72465942065 -21156 16 -8 21153 -293966 -2200619148271 2200619148273 293965 10309903 -10603868 -2200618869106 2200619163071 -12868397 12901890 -33495 -293971 38 10603823 -10309895 -293974 293974 293979 -288223780701816649 -79 -1465992281108 1465992281109 -1465992314007 32893 -1105038 1465993386268 -1465993386157 48970 -54715 164663 -180488 1465993386146 2604026 -2604027 32887 -1086558 -18192 -2549583 288223780712126892 -10604143 -2200619016779 2200619016779 112613 181333 -232567 232566 -616691 650186 -33493 33495 -12901893 12901891 -54673 -2200619254992 106724 2200619148271 -272795 2200619163072 -21174 22 -14 31662 -52814 52819 212883 -21157 -2200619193992 2200619193994 -31644 -241152 241154 31644 -2200619148267 21169 52812 -160043 212854 -52812 52810 -21173 -10309903 -2200619163071 12574426 293970 33493 -33486 -288223780701816728 79 -1465992281109 1465992281132 -1465993386169 1465993386162 2604010 -2604025 -1465992350973 1465992350995 -1465993205681 -180453 1017201 17939 -17974 1465993386164 2604008 -2604009 -1465993184639 -201523 1465993386165 -2604006 -1465992350993 -1045722 1045723 -1035170 1465993386161 -201526 -1465995969549 1465993365645 70426 -70426 -1465993356637 1465995960645 -1465995968603 48971 1465993315626 -1465993386165 1465993386166 2604006 -2604007 2604007 -2604005 -1465993386166 -1465993367726 140330 1465993227396 -1465993386170 1465993386247 2603925 -1465995834945 -155227 1465993386167 2604005 156794 1465995833378 -1465995833284 -167785 10894 -1465993386247 1465993386163 2604009 -2604008 -1465993230937 1465995834945 -1465995919635 -48972 -21565 70541 -48971 48972 -54717 1465993370339 -1465994887256 -1102916 -1465995989929 1465995978542 -1465995962523 1465995962523 11387 -2604011 -1465993369899 138862 -155124 2603904 -1465995990061 21455 1465993364595 -1465993315624 -70537 -1465993364591 48975 -54721 1465995974347 -32586 -1070330 155124 1465995835048 -1465995833863 1465993229852 -1465993231037 1186 946606 -946606 1465993229851 -1465993386161 -1465994919837 1465992315824 -1465993386159 -2604014 -1465993386158 15825 1465993370333 -1465993315616 1465995968602 -1465995792158 872324 -1070084 -182419 1465993568324 2545645 -1465996113968 1252495 1465992315830 -1465992315830 1465992315829 -1465993231035 947792 -946605 -156311 -2604012 -1465993386160 1465993386160 2604012 -1465993231036 -946604 -1188 -946603 -1189 -946602 -1190 -946601 -1191 -1465992283244 -1102679 1102679 1465992283244 -1465992283243 -1465993229367 96 -1694 -165682 11204 1102201 -2932032488021 2932031540298 -718 1465995931508 58386 -58033 53072 -2599050 -1465993229368 -139586 1085555 1465992283401 -1465992283247 1465992283247 -1465992283248 -946122 94 -167782 167785 4104 -171834 171834 19943 -191675 191675 -180938 1465993370337 -1465993315622 -48970 -1465995833396 -138621 -17912 -1465995958714 1465993366089 -1465993366091 1465993366091 -1465993230968 -165680 -2932031374616 2932031541878 1465995775010 53424 -1465995984492 286 53417 -1465995830017 1465995776945 58033 -1465996000658 1465993396648 -2604010 -1465992283246 1465992283246 -1465993386163 -1465993229276 1465993229277 -1465993230970 -166549 168242 -94 1465993229371 -1465993229371 1465993229370 -1465993186571 -39557 -163525 1465993389652 -1465995809684 1465993205681 -55 -1465993386114 180488 1465995809684 -2604068 55 -180239 180239 1465993205616 -1465992283189 -946121 -156764 17035 1085698 -945969 -140627 1086595 -945988 44665 -206706 5267 201439 1465995788733 -1465995792210 -197962 1465993386104 2604068 -2604071 -1465993386105 156774 1465995833398 -1465995788733 -44665 -156774 -1465995833398 1465993229319 -1465993386093 -2604080 -2604077 -1465992283177 1957 -1116158 1116158 -1088166 -27993 1116159 1465992281209 56 1465993205625 1465993205617 -1465993385875 180250 1465993386147 2604025 -1465995989934 1465993205659 -42 -2604067 -1465993385865 1465993385908 -1465993385905 1465993385886 2592773 -2592774 -1465993385869 -181684 1465993567551 11 -1465993385870 1465993385888 -1465993567574 -1465993369045 1085856 -1086040 1086040 913535 17961 246 1465993367898 -1465993369049 180889 1465993188159 -1465993386097 17941 1465993368132 64 1465993386114 2604058 -1465993385920 -2604058 1465993205627 1465993386103 -1465993205615 -2604057 -1465993386115 -17965 21565 -5740 1465993370270 2604078 -1465995919632 1465993364529 -1465993229317 -327352 1465993556668 -1465993205612 1465993205611 1465993205609 -351059 1465993556667 -1465993385857 180248 -363340 1465993568949 -1465993556667 1465993556669 1465993205612 -1465993205611 327352 1465993229318 -1465993386098 -2603904 1465993386095 -1465993350091 1465995954169 -2604073 -1465993315557 -70541 21570 1465995919632 -2604076 -1465993386095 1465993386101 2604071 -1465993205627 1465993205626 2604069 -2604070 2604067 -1465992283188 -1054163 140627 945968 1465992283366 -1465993386128 1465993386127 2604045 -1465995990158 16144 1465993369970 -1465993386127 27 -1465993385890 1465993385890 -27 -1465993386099 1465993386099 2604073 -2604074 29 -1465993386101 -1465993385863 1465993385864 1465993386098 2604074 -2604075 -1465993386089 1465993386088 -1465993369947 1465993369947 -1465993229325 1465993386097 2604075 -1465993230871 -1465995833377 1465993229303 -1465993184660 -3477 1465993188137 1465993386102 2604070 -1465993386100 1465993386105 13 -1465993386116 -2604069 -1465993386104 1102916 1465994887256 -1465995973296 1465993369251 -1465992315798 1465992315798 -1465992283199 -913535 1465993229320 -1465992315784 1465992315797 1465993386075 2604097 -2604044 1465993385837 -1465993386074 1465993386073 2604099 -1465995989933 1070092 1465992315744 -1465993386075 -2604098 -1465993386076 1465993386115 2604057 -180250 -238 -1465993385836 1465993205586 -1465993386072 1465993386072 2604100 -2604101 -1465993385832 1465993385835 -1465993385831 1465995978659 -2592828 -1465993386073 5740 1465993364506 2604101 -1465995919630 1050331 1465992314173 42 -2604056 -4398024771178 2932031385062 -2604105 -1465993315530 1465993386066 -1465993385955 15714 1465993370241 2604106 -1465993364502 48973 -48969 135880 1465993228667 2932031385300 -2932031385300 4398024771130 -1465993386068 1465993386069 2604103 -2604103 -1465992314168 1465992314170 -1465992314170 1465992314211 1465993205581 -1465993386069 -1465993205581 1465993205577 1465993386067 2604105 -2604106 -2604104 -1465993556637 170808 -182611 1465993568442 180251 1465993205576 -1465993205577 1465993205578 -1465993386065 -1465993386067 -1465996160742 1465993556685 -1465993370242 -1465993315527 1465993364498 1465993385877 -1465993186588 -19039 1465993205580 -2604100 -1465992314171 -180489 1242475 -1071905 1071901 -2932032456963 4398027375234 -1465995832723 914453 -1071902 -4398027375234 81 2932031384981 1465993386065 2604107 -2604108 -1465992314161 -2932032456964 2932032456967 1465992314162 -2604107 1465993386074 2604098 -2604099 -1465994918267 -157449 -2932031384981 2932032456883 1465994918270 -2932031385062 4398024771128 -1465992314164 1465994918269 -2932032456966 1465992314165 -1465992314174 2932031385107 -45 -1465996160127 169955 1465993370242 1465995968603 -1465995791207 -198924 1071860 -872374 872374 1465992314169 -1465993386026 199483 1465993186544 -1465993386071 1465993386071 -1465993186544 -199289 199289 1465993186538 -1465993186539 -199527 -1465993186543 199527 1465995790645 -1465993315524 1465995919631 -1465994887228 -1102907 1465993386030 1465993186540 -1102945 -1465994887227 -1465993385827 -1465993386063 1465993386063 2604109 -2604110 -1465993385824 1102707 1465992283119 -1465992283119 -1465993386066 -1465992283127 -1107625 1465993390745 -1465993187102 -198965 1465993370239 -1465995834943 43736 1465993187102 -1465993187105 -203571 203571 1465993187104 -1465993390675 159835 -4647 -1465993350065 1465995954172 -198928 21532 48969 1465993315528 -1465993349980 1465995954086 1465993315533 1465993370247 -1465993315532 1465993187111 198965 1465995791207 -1465993187109 1465993187116 -1465993187116 -210110 11145 1465994918271 -1465995790645 1465993186543 -1465993386070 1465993386070 2604102 1465993186539 -2604102 -199288 199288 -378509 378509 -378508 179220 -239 1102944 1465994887228 -1465992283124 1107625 1465993390750 1465993390749 1076583 -1465992314165 170570 -1465993187107 872936 -914452 1465993228623 1465993386076 2604096 -2604097 -1465993367876 -725 180466 -179741 -197948 1465995958714 -1465995970101 135123 -2932031540296 2932031385820 -11204 10486 53071 -2599139 -1465992283210 -1102917 1465995990166 -1465996058155 1465993454111 -59 -1465993386034 16673 1465993369396 -1465992281230 1465992281230 -1116160 1116160 125 -125 1088193 -26 -1104875 -1465994885297 1088166 -1116161 1116161 -1104627 159309 1465993226508 158 -1465993226666 1465993226510 -1465993226510 878779 -836810 1465993184541 -1465993184555 1465993184539 -1465993184553 903364 -947439 -157188 159308 -159555 1116206 -1088049 -16591 1465993385944 -1465993368079 1465993367923 -1465993369360 1088068 -1104901 1104877 -1088168 1465995973464 -1465994885298 170842 -159308 1465993226666 -1465992347887 -836824 -41967 41968 -1465993184542 903352 -903353 -201276 -1465993228670 1465993228672 -1465993385821 1465993385879 -25 -1465992281229 1465993397389 1104839 -1088003 -28157 130 -1104906 1104878 -1088169 -11534 945321 -66542 66543 -903367 -41955 159307 1465993226511 -1465993184544 1465993386068 -1465993228592 1465995832696 -1465995989923 -1465992283150 -1116159 11285 -1465992281254 1465992281192 -1465992281190 1465992281191 -1465992281194 -1465993386062 -62 2604104 1465992281190 -1465992281189 1465992281189 -1465993556218 170150 16013 1465993369962 -1465993369962 1465993369868 -1465993369868 182493 -198513 -1465993187375 1465993187318 -1465993187317 -182494 -16012 16011 -16259 57 -1102911 -1465993368161 1465993368104 -1465992281198 -1104908 1104879 -1088170 1465993226512 -1465992347733 66544 -945323 41970 -201525 -1465993228628 1465993228629 24 161276 1465995828896 -1465993224852 -161036 161036 1465993224852 -1465993224850 1465993224850 -56 -1465993224794 907531 -1068569 -1465992317318 1465992317318 -1068810 -1465993386103 -1465992283187 1465993369227 -1465992315773 32586 345 -2599137 54 1465993385836 -1465993385833 1465995989933 -1465992315743 1465992315743 -1465993224826 1465993224849 -1465992315797 1070093 -1070092 1465994908455 -2592658 -1465992315741 1465992315741 -1465995832167 -158005 -1465992283156 -1084985 138863 1465993229280 -1465993229186 -156888 1465995990169 -1465995989925 155836 1465993230139 -1465993385881 1465993385882 -1465993230042 59449 -59449 59399 1465993170643 -1465993170643 1465993170642 -1465993385887 1465993170586 -1465993229984 -156083 215482 -59402 -155835 -248 156795 1465995833377 -1085242 139120 908594 -909415 5425 -172457 172474 1465993224550 -1465992283144 -1084995 1052418 -913545 -138865 -17929 -1465994887408 -1102764 1465993386060 2604112 -2604115 -1465993386056 -2604111 -1465993386079 -2604091 872940 31011 -805 1465993229998 -1465993386081 -1465993364506 1465993370245 135212 1465993229289 -1465995990133 653 -692 -1465995832172 1465993228038 -1465993386038 1465993386037 2604135 -2799 1465993230836 -1465993226045 -159990 1465993386033 2604139 -2604139 1465993386032 -1465993228032 1465993228033 -2604138 -1465993226043 1465993226048 -1465993226048 42384 1465993183658 1465993226045 -1465993386033 -1465995830181 -159744 159744 1465993226041 190 -1465993226230 -159992 1465993370207 -1465993315492 -1465994909075 -921105 38248 -198237 159988 -159743 1465993386034 2604138 -1465993183657 -42386 42385 -860 1465993184522 -1465993386037 1465993370208 -1465993315494 -1465995790580 1465993186445 -1465992304940 1465992304939 -1465993183661 -202375 -2604133 -1465993183664 -202137 202137 1465993183664 -1465993183662 832717 1465992350945 -185319 1465993368979 -1465993386045 -1465995833388 1465993229261 -1465993229255 1465993229255 1465992304940 -1465993356416 1465995960555 1465993315499 -1465993187070 2932032456963 -1071901 1465993186506 -1465993385795 1465993186501 -1465993186502 1465993186502 -1465993386031 2604142 -1465993186506 -382379 382379 -368840 1465993555346 -2604141 -1465993187066 -872940 -40964 -1465993386032 1465993386044 -1465993367914 -18076 17912 -17275 17275 138921 1465993225039 -1465993396872 1465993396878 -1465993386040 -2604137 872937 2932031543063 -158001 158000 1465995832172 1465993386040 2604132 1465993230837 2604134 -1465995830182 1465993228039 -1465993226050 42386 -202376 -1465993186513 -2604132 1465993386036 -1465996173024 183091 1465993555351 -1465993386039 1465995832171 1465992314135 -1465993367833 -722 180463 1465993188126 194 -1465993386268 111 1465993370214 -1465993315498 -1465995792118 -197736 -318 1465993186513 1465993186511 -2604134 -1465993385800 1465993386035 -1465993186508 1465993186509 -1465993186511 -199287 -183092 -1465993386036 -1465993370210 54714 1465993364465 2604137 1465993186510 -2604135 -1465993186510 1465993385799 1465993386038 -1471 -197816 1465995978545 -1465995780728 1465995792115 -1465995787797 1465995776411 -1465995776411 -4318 1465993187981 2592747 1465993183662 38975 -32 -1465993187077 1465993187078 -1465993229260 878306 -878307 42808 -42808 -156784 1465993386039 -1465993349951 1465995954085 -135215 130976 1465993184530 -1465993350037 -1465995919631 -1465993386043 -2604131 -1465994887221 -1102951 1102952 1465992283110 1465993370238 -1465993315523 -1465994951862 64641 -156834 637 160265 -171492 171492 1465993225105 1465993370237 -1465993315522 -1465994951784 1465992347678 -21566 -1465993315518 1465995968601 -1465994887442 1465992283333 1465993386062 -1465993385950 54712 1465995919635 1081388 -1032414 1016751 -1038320 1465993386157 -1465993364702 70537 -54712 -1465994887498 1465992283389 -1465992283111 1465992283113 -1465992283112 1465992283112 -1465992283113 1465992283114 -1465992347747 -1465993356403 1465995960513 -1465993315521 -48973 -70543 -1465993356529 1465995960639 -1465994887219 -1081384 1465993315526 -1465993385825 -1465995832176 944956 1465994875834 -1465995820790 1465992283111 2592722 -2592723 2604110 -1465992283114 -1102954 
Potential of Offsets elements: 28.284 602.284 28.284 966.284 28.284 28.284 1755.28 28.284 28.284 28.284 28.284 1581.28 65.284 28.284 28.284 834.284 28.284 28.284 28.284 28.284 28.284 28.284 28.284 28.284 28.284 28.284 235.284 82.284 53.284 28.284 28.284 28.284 150.284 28.284 28.284 28.284 28.284 28.284 28.284 28.284 28.284 28.284 322.284 28.284 28.284 28.284 28.284 28.284 113.284 28.284 31.284 40.284 28.284 28.284 28.284 28.284 28.284 28.284 28.284 28.284 28.284 28.284 28.284 28.284 28.284 28.284 28.284 28.284 28.284 28.284 28.284 28.284 28.284 28.284 119.284 42.284 42.284 804.284 214.284 28.284 28.284 28.284 28.284 28.284 28.284 28.284 28.284 28.284 28.284 28.284 28.284 28.284 28.284 28.284 28.284 28.284 28.284 49.284 28.284 28.284 28.284 28.284 28.284 28.284 28.284 28.284 28.284 28.284 28.284 28.284 28.284 28.284 28.284 443.284 538.284 28.284 46.284 38.284 28.284 28.284 28.284 28.284 28.284 28.284 28.284 227.284 1084.28 664.284 28.284 28.284 370.284 28.284 28.284 782.284 93.284 108.284 28.284 28.284 1193.14 28.284 28.284 1607.28 348.284 28.284 28.284 28.284 28.284 28.284 28.284 28.284 1501.28 28.284 28.284 28.284 28.284 28.284 28.284 28.284 28.284 28.284 28.284 28.284 28.284 1745.28 28.284 28.284 28.284 28.284 28.284 28.284 30.284 44.284 28.284 28.284 28.284 28.284 28.284 28.284 28.284 28.284 28.284 28.284 28.284 28.284 28.284 37.284 28.284 28.284 398.284 28.284 28.284 28.284 28.284 28.284 28.284 28.284 28.284 28.284 29.284 28.284 28.284 28.284 28.284 28.284 28.284 28.284 49.284 28.284 28.284 32.284 28.284 28.284 28.284 28.284 28.284 28.284 28.284 28.284 28.284 36.284 28.284 28.284 28.284 28.284 28.284 28.284 28.284 28.284 28.284 28.284 49.284 28.284 28.284 28.284 28.284 28.284 28.284 123.284 28.284 28.284 28.284 28.284 28.284 28.284 28.284 28.284 28.284 28.284 28.284 28.284 28.284 49.284 28.284 28.284 29.284 28.284 28.284 28.284 28.284 28.284 28.284 28.284 28.284 28.284 28.284 28.284 28.284 28.284 91.284 28.284 28.284 120.284 44.284 28.284 28.284 28.284 28.284 28.284 28.284 370.284 28.284 28.284 28.284 1144.28 28.284 28.284 28.284 28.284 28.284 36.284 28.284 28.284 43.284 37.284 28.284 28.284 350.284 28.284 2640.11 28.284 28.284 28.284 28.284 84.284 28.284 28.284 28.284 79.284 28.284 28.284 98.284 28.284 28.284 28.284 32.284 28.284 28.284 28.284 28.284 28.284 28.284 28.284 28.284 28.284 28.284 28.284 28.284 28.284 28.284 28.284 28.284 28.284 66.284 28.284 28.284 30.284 28.284 32.284 28.284 28.284 28.284 28.284 28.284 51.284 28.284 28.284 28.284 28.284 28.284 28.284 28.284 28.284 153.284 42.284 68.284 255.284 28.284 28.284 28.284 28.284 28.284 28.284 28.284 28.284 222.284 28.284 28.284 28.284 28.284 28.284 28.284 28.284 28.284 28.284 28.284 28.284 28.284 29.284 28.284 80.284 28.284 28.284 28.284 28.284 28.284 28.284 28.284 28.284 28.284 28.284 28.284 28.284 28.284 28.284 28.284 28.284 28.284 30.284 31.284 28.284 28.284 28.284 28.284 28.284 28.284 28.284 28.284 28.284 28.284 28.284 28.284 28.284 28.284 29.284 28.284 28.284 28.284 28.284 28.284 28.284 28.284 28.284 28.284 28.284 28.284 28.284 28.284 327.284 56.284 28.284 28.284 28.284 28.284 28.284 28.284 28.284 28.284 28.284 28.284 174.284 57.284 28.284 28.284 28.284 28.284 28.284 300.284 299.284 28.284 28.284 28.284 28.284 28.284 28.284 28.284 28.284 28.284 28.284 28.284 28.284 28.284 83.284 30.284 227.284 28.284 28.284 28.284 406.284 28.284 28.284 28.284 28.284 28.284 28.284 28.284 28.284 28.284 37.284 28.284 36.284 28.284 329.284 28.284 28.284 28.284 28.284 28.284 28.284 28.284 28.284 28.284 28.284 28.284 28.284 28.284 28.284 28.284 28.284 28.284 28.284 28.284 28.284 28.284 28.284 28.284 28.284 28.284 28.284 28.284 28.284 28.284 28.284 28.284 28.284 28.284 28.284 28.284 28.284 28.284 28.284 28.284 28.284 28.284 128.284 28.284 28.284 28.284 28.284 28.284 28.284 28.284 28.284 28.284 28.284 28.284 28.284 28.284 28.284 28.284 28.284 28.284 28.284 33.284 28.284 393.284 40.284 28.284 28.284 28.284 28.284 28.284 28.284 28.284 28.284 28.284 28.284 28.284 28.284 28.284 133.284 33.284 28.284 28.284 28.284 28.284 998.284 28.284 28.284 216.284 28.284 28.284 28.284 28.284 28.284 28.284 28.284 28.284 28.284 28.284 28.284 28.284 28.284 28.284 28.284 28.284 28.284 854.284 28.284 28.284 28.284 28.284 28.284 28.284 28.284 28.284 28.284 28.284 28.284 28.284 30.284 85.284 28.284 28.284 28.284 28.284 28.284 28.284 35.284 28.284 28.284 28.284 28.284 28.284 28.284 28.284 28.284 28.284 28.284 30.284 37.284 28.284 28.284 28.284 28.284 28.284 28.284 28.284 97.284 156.284 28.284 28.284 28.284 28.284 28.284 28.284 28.284 28.284 28.284 28.284 28.284 28.284 28.284 28.284 28.284 28.284 28.284 28.284 28.284 76.284 123.284 28.284 28.284 28.284 28.284 28.284 283.284 28.284 38.284 28.284 28.284 28.284 28.284 28.284 28.284 28.284 28.284 28.284 28.284 28.284 107.284 47.284 28.284 28.284 28.284 28.284 28.284 28.284 28.284 28.284 28.284 28.284 28.284 28.284 28.284 28.284 28.284 28.284 28.284 238.284 28.284 28.284 37.284 28.284 28.284 28.284 28.284 28.284 28.284 28.284 28.284 28.284 28.284 28.284 28.284 28.284 28.284 28.284 38.284 28.284 28.284 76.284 147.284 28.284 28.284 28.284 28.284 28.284 28.284 28.284 28.284 28.284 28.284 28.284 28.284 28.284 28.284 28.284 28.284 37.284 28.284 28.284 162.284 28.284 28.284 28.284 28.284 28.284 28.284 28.284 28.284 28.284 28.284 28.284 28.284 28.284 28.284 28.284 28.284 28.284 28.284 28.284 28.284 36.284 28.284 28.284 28.284 28.284 28.284 28.284 28.284 28.284 28.284 28.284 28.284 28.284 28.284 28.284 28.284 28.284 28.284 28.284 28.284 28.284 28.284 28.284 28.284 28.284 28.284 28.284 28.284 28.284 28.284 28.284 28.284 28.284 28.284 28.284 28.284 28.284 28.284 28.284 28.284 28.284 28.284 28.284 28.284 28.284 28.284 28.284 28.284 28.284 28.284 28.284 28.284 177.284 28.284 28.284 28.284 28.284 28.284 28.284 28.284 28.284 28.284 28.284 28.284 28.284 28.284 28.284 28.284 28.284 28.284 28.284 28.284 28.284 28.284 28.284 175.284 28.284 28.284 28.284 28.284 28.284 28.284 28.284 28.284 28.284 28.284 28.284 28.284 121.284 33.284 48.284 129.284 28.284 28.284 28.284 28.284 28.284 28.284 28.284 28.284 28.284 28.284 28.284 28.284 28.284 28.284 28.284 28.284 61.284 28.284 28.284 28.284 28.284 28.284 28.284 28.284 28.284 28.284 28.284 28.284 28.284 28.284 28.284 28.284 28.284 28.284 28.284 28.284 28.284 28.284 28.284 43.284 180.284 28.284 28.284 119.284 324.284 28.284 28.284 28.284 28.284 28.284 34.284 28.284 28.284 28.284 28.284 28.284 28.284 28.284 28.284 28.284 28.284 28.284 28.284 28.284 29.284 73.284 28.284 28.284 28.284 28.284 28.284 220.284 259.284 28.284 28.284 28.284 28.284 28.284 28.284 28.284 33.284 28.284 28.284 36.284 28.284 28.284 41.284 28.284 28.284 28.284 28.284 28.284 28.284 42.284 28.284 28.284 28.284 28.284 28.284 28.284 28.284 28.284 28.284 28.284 28.284 28.284 28.284 168.284 28.284 28.284 28.284 28.284 28.284 28.284 28.284 28.284 28.284 28.284 28.284 28.284 28.284 31.284 28.284 28.284 28.284 34.284 28.284 28.284 30.284 28.284 28.284 28.284 28.284 385.284 375.284 28.284 28.284 28.284 28.284 42.284 28.284 28.284 28.284 28.284 28.284 28.284 28.284 28.284 28.284 28.284 28.284 28.284 28.284 28.284 28.284 28.284 28.284 28.284 28.284 28.284 28.284 28.284 50.284 42.284 28.284 28.284 40.284 28.284 28.284 28.284 28.284 28.284 28.284 28.284 28.284 28.284 28.284 28.284 28.284 28.284 28.284 28.284 28.284 28.284 28.284 28.284 28.284 28.284 28.284 28.284 29.284 58.284 28.284 28.284 28.284 36.284 28.284 28.284 28.284 28.284 28.284 28.284 28.284 28.284 28.284 28.284 28.284 28.284 28.284 28.284 28.284 28.284 28.284 28.284 28.284 28.284 248.284 28.284 28.284 28.284 28.284 28.284 28.284 28.284 28.284 28.284 28.284 28.284 28.284 28.284 28.284 28.284 28.284 28.284 28.284 28.284 28.284 28.284 28.284 28.284 28.284 28.284 28.284 172.284 28.284 400.284 28.284 28.284 28.284 28.284 28.284 28.284 28.284 28.284 28.284 28.284 28.284 77.284 28.284 28.284 28.284 28.284 28.284 34.284 79.284 28.284 28.284 28.284 28.284 28.284 28.284 73.284 28.284 28.284 28.284 28.284 28.284 34.284 28.284 28.284 28.284 28.284 28.284 28.284 28.284 28.284 28.284 28.284 28.284 28.284 28.284 28.284 28.284 28.284 28.284 28.284 28.284 28.284 31.284 28.284 28.284 28.284 28.284 28.284 28.284 32.284 75.284 28.284 28.284 214.284 28.284 28.284 29.284 28.284 28.284 28.284 28.284 29.284 28.284 126.284 28.284 28.284 28.284 28.284 28.284 28.284 28.284 28.284 28.284 28.284 491.284 28.284 28.284 29.284 28.284 28.284 28.284 28.284 28.284 28.284 28.284 28.284 28.284 28.284 28.284 28.284 28.284 40.284 28.284 28.284 28.284 28.284 28.284 28.284 35.284 28.284 28.284 29.284 28.284 29.284 28.284 96.284 28.284 28.284 42.284 28.284 28.284 28.284 28.284 28.284 28.284 28.284 28.284 31.284 28.284 28.284 28.284 28.284 28.284 28.284 28.284 28.284 28.284 30.284 28.284 28.284 28.284 28.284 28.284 66.284 59.284 28.284 46.284 28.284 28.284 28.284 28.284 28.284 28.284 28.284 28.284 28.284 28.284 28.284 28.284 28.284 28.284 28.284 28.284 28.284 28.284 28.284 28.284 28.284 28.284 28.284 28.284 28.284 28.284 28.284 28.284 28.284 28.284 117.284 28.284 28.284 28.284 28.284 28.284 28.284 37.284 130.284 51.284 28.284 28.284 28.284 28.284 121.284 28.284 28.284 28.284 28.284 28.284 28.284 34.284 28.284 28.284 28.284 28.284 28.284 377.284 28.284 28.284 28.284 28.284 28.284 28.284 28.284 28.284 28.284 31.284 28.284 28.284 28.284 28.284 28.284 28.284 28.284 52.284 28.284 28.284 28.284 28.284 326.284 28.284 28.284 28.284 28.284 28.284 76.284 28.284 28.284 28.284 116.284 28.284 28.284 28.284 28.284 28.284 28.284 28.284 28.284 28.284 28.284 28.284 28.284 28.284 28.284 28.284 28.284 28.284 28.284 28.284 28.284 28.284 28.284 28.284 28.284 28.284 28.284 28.284 28.284 28.284 28.284 28.284 28.284 28.284 28.284 28.284 28.284 28.284 28.284 28.284 28.284 28.284 28.284 28.284 28.284 28.284 28.284 28.284 28.284 28.284 28.284 69.284 28.284 28.284 111.284 28.284 28.284 28.284 28.284 104.284 28.284 34.284 52.284 648.284 28.284 28.284 28.284 28.284 28.284 28.284 28.284 28.284 28.284 28.284 51.284 28.284 28.284 28.284 28.284 28.284 28.284 28.284 28.284 256.284 28.284 28.284 28.284 28.284 28.284 28.284 28.284 28.284 28.284 28.284 28.284 28.284 28.284 28.284 28.284 28.284 28.284 28.284 28.284 28.284 28.284 223.284 28.284 90.284 83.284 388.284 174.284 28.284 28.284 28.284 108.284 64.284 28.284 28.284 28.284 28.284 28.284 28.284 28.284 28.284 28.284 28.284 28.284 29.284 28.284 28.284 28.284 28.284 28.284 28.284 28.284 28.284 28.284 28.284 28.284 28.284 28.284 28.284 28.284 28.284 28.284 30.284 28.284 28.284 30.284 32.284 34.284 28.284 85.284 28.284 28.284 54.284 51.284 166.284 28.284 28.284 28.284 28.284 28.284 28.284 28.284 28.284 28.284 28.284 28.284 28.284 28.284 28.284 28.284 28.284 28.284 28.284 28.284 28.284 28.284 28.284 28.284 28.284 28.284 28.284 28.284 28.284 28.284 28.284 28.284 28.284 28.284 28.284 28.284 28.284 28.284 28.284 28.284 28.284 28.284 48.284 28.284 28.284 28.284 28.284 28.284 28.284 28.284 28.284 28.284 28.284 28.284 28.284 28.284 28.284 28.284 28.284 28.284 28.284 28.284 480.284 28.284 28.284 40.284 28.284 28.284 28.284 28.284 28.284 36.284 256.284 28.284 28.284 28.284 28.284 28.284 28.284 28.284 28.284 28.284 46.284 1237.28 28.284 31.284 32.284 28.284 36.284 28.284 28.284 28.284 28.284 28.284 28.284 28.284 28.284 28.284 28.284 28.284 28.284 28.284 28.284 28.284 28.284 28.284 28.284 28.284 28.284 28.284 28.284 28.284 28.284 28.284 28.284 28.284 28.284 28.284 28.284 28.284 28.284 28.284 28.284 28.284 94.284 28.284 28.284 32.284 28.284 28.284 28.284 40.284 40.284 28.284 28.284 84.284 28.284 28.284 28.284 28.284 28.284 28.284 28.284 28.284 28.284 89.284 28.284 28.284 28.284 28.284 28.284 28.284 28.284 28.284 28.284 28.284 28.284 28.284 28.284 28.284 28.284 28.284 28.284 28.284 28.284 28.284 92.284 28.284 43.284 28.284 28.284 28.284 28.284 28.284 527.284 478.284 173.284 29.284 28.284 28.284 28.284 28.284 28.284 28.284 28.284 30.284 28.284 29.284 28.284 28.284 28.284 28.284 28.284 28.284 28.284 28.284 31.284 28.284 28.284 28.284 28.284 28.284 28.284 28.284 28.284 28.284 28.284 675.284 336.284 379.284 28.284 28.284 28.284 28.284 28.284 28.284 32.284 28.284 37.284 28.284 28.284 28.284 28.284 28.284 28.284 28.284 28.284 28.284 28.284 28.284 28.284 28.284 28.284 28.284 28.284 28.284 28.284 28.284 28.284 28.284 28.284 28.284 28.284 28.284 28.284 28.284 28.284 28.284 28.284 28.284 79.284 35.284 28.284 28.284 28.284 28.284 28.284 28.284 32.284 36.284 186.284 28.284 28.284 28.284 28.284 28.284 28.284 28.284 28.284 31.284 28.284 28.284 28.284 28.284 28.284 28.284 28.284 28.284 28.284 28.284 28.284 28.284 28.284 28.284 28.284 28.284 28.284 28.284 28.284 28.284 43.284 28.284 725.284 28.284 28.284 28.284 28.284 28.284 28.284 28.284 28.284 28.284 28.284 28.284 28.284 28.284 28.284 28.284 28.284 28.284 28.284 28.284 28.284 28.284 28.284 28.284 28.284 28.284 28.284 28.284 28.284 28.284 28.284 28.284 28.284 28.284 28.284 28.284 47.284 28.284 28.284 28.284 28.284 28.284 106.284 28.284 28.284 311.284 28.284 28.284 28.284 28.284 28.284 28.284 30.284 28.284 28.284 28.284 28.284 29.284 28.284 28.284 35.284 28.284 205.284 28.284 28.284 28.284 28.284 28.284 28.284 28.284 28.284 28.284 28.284 28.284 28.284 28.284 28.284 28.284 28.284 28.284 28.284 124.284 28.284 83.284 43.284 29.284 30.284 28.284 28.284 28.284 28.284 44.284 28.284 28.284 28.284 29.284 28.284 28.284 28.284 28.284 28.284 28.284 28.284 28.284 28.284 28.284 28.284 28.284 28.284 28.284 28.284 28.284 28.284 28.284 28.284 28.284 28.284 28.284 28.284 28.284 28.284 28.284 28.284 28.284 50.284 28.284 118.284 28.284 28.284 28.284 28.284 28.284 28.284 181.284 33.284 28.284 28.284 28.284 28.284 28.284 28.284 28.284 28.284 28.284 28.284 28.284 28.284 28.284 196.284 28.284 28.284 28.284 28.284 28.284 28.284 28.284 28.284 28.284 28.284 28.284 28.284 28.284 28.284 28.284 28.284 28.284 28.284 28.284 37.284 85.284 28.284 28.284 28.284 28.284 28.284 28.284 28.284 28.284 28.284 28.284 28.284 28.284 28.284 28.284 28.284 28.284 28.284 28.284 28.284 28.284 28.284 28.284 28.284 28.284 28.284 28.284 28.284 28.284 28.284 28.284 28.284 28.284 28.284 28.284 28.284 28.284 28.284 28.284 28.284 28.284 28.284 28.284 28.284 28.284 28.284 28.284 28.284 28.284 28.284 28.284 28.284 28.284 28.284 28.284 28.284 28.284 28.284 28.284 28.284 28.284 28.284 28.284 28.284 28.284 28.284 28.284 28.284 28.284 28.284 28.284 28.284 28.284 28.284 28.284 28.284 28.284 28.284 28.284 28.284 28.284 31.284 28.284 51.284 28.284 56.284 28.284 28.284 28.284 28.284 47.284 28.284 28.284 28.284 28.284 28.284 28.284 28.284 28.284 28.284 28.284 28.284 28.284 76.284 28.284 410.284 28.284 28.284 28.284 28.284 28.284 28.284 28.284 28.284 28.284 28.284 28.284 28.284 28.284 28.284 28.284 52.284 28.284 30.284 42.284 376.284 28.284 28.284 28.284 36.284 78.284 28.284 29.284 28.284 28.284 28.284 28.284 28.284 28.284 28.284 28.284 28.284 28.284 28.284 145.284 28.284 28.284 28.284 28.284 28.284 28.284 28.284 28.284 28.284 28.284 28.284 28.284 28.284 28.284 28.284 28.284 28.284 28.284 28.284 532.284 28.284 28.284 138.284 28.284 283.284 28.284 28.284 28.284 28.284 28.284 28.284 28.284 28.284 28.284 28.284 28.284 28.284 28.284 74.284 28.284 28.284 28.284 28.284 28.284 28.284 28.284 28.284 28.284 28.284 28.284 28.284 28.284 28.284 28.284 28.284 28.284 28.284 28.284 28.284 28.284 28.284 29.284 28.284 28.284 104.284 34.284 28.284 28.284 28.284 28.284 88.284 36.284 34.284 28.284 28.284 28.284 28.284 28.284 28.284 28.284 28.284 28.284 28.284 
rewards of Offsets elements: 0 574 0 938 0 0 1727 0 0 0 0 1553 37 0 0 806 0 0 0 0 0 0 0 0 0 0 207 54 25 0 0 0 122 0 0 0 0 0 0 0 0 0 294 0 0 0 0 0 85 0 3 12 0 0 0 0 0 0 0 0 0 0 0 0 0 0 0 0 0 0 0 0 0 0 91 14 14 776 186 0 0 0 0 0 0 0 0 0 0 0 0 0 0 0 0 0 0 21 0 0 0 0 0 0 0 0 0 0 0 0 0 0 0 415 510 0 18 10 0 0 0 0 0 0 0 199 1056 636 0 0 342 0 0 754 65 80 0 0 1179 0 0 1579 320 0 0 0 0 0 0 0 1473 0 0 0 0 0 0 0 0 0 0 0 0 1717 0 0 0 0 0 0 2 16 0 0 0 0 0 0 0 0 0 0 0 0 0 9 0 0 370 0 0 0 0 0 0 0 0 0 1 0 0 0 0 0 0 0 21 0 0 4 0 0 0 0 0 0 0 0 0 8 0 0 0 0 0 0 0 0 0 0 21 0 0 0 0 0 0 95 0 0 0 0 0 0 0 0 0 0 0 0 0 21 0 0 1 0 0 0 0 0 0 0 0 0 0 0 0 0 63 0 0 92 16 0 0 0 0 0 0 342 0 0 0 1116 0 0 0 0 0 8 0 0 15 9 0 0 322 0 2640 0 0 0 0 56 0 0 0 51 0 0 70 0 0 0 4 0 0 0 0 0 0 0 0 0 0 0 0 0 0 0 0 0 38 0 0 2 0 4 0 0 0 0 0 23 0 0 0 0 0 0 0 0 125 14 40 227 0 0 0 0 0 0 0 0 194 0 0 0 0 0 0 0 0 0 0 0 0 1 0 52 0 0 0 0 0 0 0 0 0 0 0 0 0 0 0 0 0 2 3 0 0 0 0 0 0 0 0 0 0 0 0 0 0 1 0 0 0 0 0 0 0 0 0 0 0 0 0 299 28 0 0 0 0 0 0 0 0 0 0 146 29 0 0 0 0 0 272 271 0 0 0 0 0 0 0 0 0 0 0 0 0 55 2 199 0 0 0 378 0 0 0 0 0 0 0 0 0 9 0 8 0 301 0 0 0 0 0 0 0 0 0 0 0 0 0 0 0 0 0 0 0 0 0 0 0 0 0 0 0 0 0 0 0 0 0 0 0 0 0 0 0 0 0 100 0 0 0 0 0 0 0 0 0 0 0 0 0 0 0 0 0 0 5 0 365 12 0 0 0 0 0 0 0 0 0 0 0 0 0 105 5 0 0 0 0 970 0 0 188 0 0 0 0 0 0 0 0 0 0 0 0 0 0 0 0 0 826 0 0 0 0 0 0 0 0 0 0 0 0 2 57 0 0 0 0 0 0 7 0 0 0 0 0 0 0 0 0 0 2 9 0 0 0 0 0 0 0 69 128 0 0 0 0 0 0 0 0 0 0 0 0 0 0 0 0 0 0 0 48 95 0 0 0 0 0 255 0 10 0 0 0 0 0 0 0 0 0 0 0 79 19 0 0 0 0 0 0 0 0 0 0 0 0 0 0 0 0 0 210 0 0 9 0 0 0 0 0 0 0 0 0 0 0 0 0 0 0 10 0 0 48 119 0 0 0 0 0 0 0 0 0 0 0 0 0 0 0 0 9 0 0 134 0 0 0 0 0 0 0 0 0 0 0 0 0 0 0 0 0 0 0 0 8 0 0 0 0 0 0 0 0 0 0 0 0 0 0 0 0 0 0 0 0 0 0 0 0 0 0 0 0 0 0 0 0 0 0 0 0 0 0 0 0 0 0 0 0 0 0 0 0 0 0 0 149 0 0 0 0 0 0 0 0 0 0 0 0 0 0 0 0 0 0 0 0 0 0 147 0 0 0 0 0 0 0 0 0 0 0 0 93 5 20 101 0 0 0 0 0 0 0 0 0 0 0 0 0 0 0 0 33 0 0 0 0 0 0 0 0 0 0 0 0 0 0 0 0 0 0 0 0 0 0 15 152 0 0 91 296 0 0 0 0 0 6 0 0 0 0 0 0 0 0 0 0 0 0 0 1 45 0 0 0 0 0 192 231 0 0 0 0 0 0 0 5 0 0 8 0 0 13 0 0 0 0 0 0 14 0 0 0 0 0 0 0 0 0 0 0 0 0 140 0 0 0 0 0 0 0 0 0 0 0 0 0 3 0 0 0 6 0 0 2 0 0 0 0 357 347 0 0 0 0 14 0 0 0 0 0 0 0 0 0 0 0 0 0 0 0 0 0 0 0 0 0 0 22 14 0 0 12 0 0 0 0 0 0 0 0 0 0 0 0 0 0 0 0 0 0 0 0 0 0 0 1 30 0 0 0 8 0 0 0 0 0 0 0 0 0 0 0 0 0 0 0 0 0 0 0 0 220 0 0 0 0 0 0 0 0 0 0 0 0 0 0 0 0 0 0 0 0 0 0 0 0 0 0 144 0 372 0 0 0 0 0 0 0 0 0 0 0 49 0 0 0 0 0 6 51 0 0 0 0 0 0 45 0 0 0 0 0 6 0 0 0 0 0 0 0 0 0 0 0 0 0 0 0 0 0 0 0 0 3 0 0 0 0 0 0 4 47 0 0 186 0 0 1 0 0 0 0 1 0 98 0 0 0 0 0 0 0 0 0 0 463 0 0 1 0 0 0 0 0 0 0 0 0 0 0 0 0 12 0 0 0 0 0 0 7 0 0 1 0 1 0 68 0 0 14 0 0 0 0 0 0 0 0 3 0 0 0 0 0 0 0 0 0 2 0 0 0 0 0 38 31 0 18 0 0 0 0 0 0 0 0 0 0 0 0 0 0 0 0 0 0 0 0 0 0 0 0 0 0 0 0 0 0 89 0 0 0 0 0 0 9 102 23 0 0 0 0 93 0 0 0 0 0 0 6 0 0 0 0 0 349 0 0 0 0 0 0 0 0 0 3 0 0 0 0 0 0 0 24 0 0 0 0 298 0 0 0 0 0 48 0 0 0 88 0 0 0 0 0 0 0 0 0 0 0 0 0 0 0 0 0 0 0 0 0 0 0 0 0 0 0 0 0 0 0 0 0 0 0 0 0 0 0 0 0 0 0 0 0 0 0 0 0 0 41 0 0 83 0 0 0 0 76 0 6 24 620 0 0 0 0 0 0 0 0 0 0 23 0 0 0 0 0 0 0 0 228 0 0 0 0 0 0 0 0 0 0 0 0 0 0 0 0 0 0 0 0 0 195 0 62 55 360 146 0 0 0 80 36 0 0 0 0 0 0 0 0 0 0 0 1 0 0 0 0 0 0 0 0 0 0 0 0 0 0 0 0 0 2 0 0 2 4 6 0 57 0 0 26 23 138 0 0 0 0 0 0 0 0 0 0 0 0 0 0 0 0 0 0 0 0 0 0 0 0 0 0 0 0 0 0 0 0 0 0 0 0 0 0 0 0 0 20 0 0 0 0 0 0 0 0 0 0 0 0 0 0 0 0 0 0 0 452 0 0 12 0 0 0 0 0 8 228 0 0 0 0 0 0 0 0 0 18 1209 0 3 4 0 8 0 0 0 0 0 0 0 0 0 0 0 0 0 0 0 0 0 0 0 0 0 0 0 0 0 0 0 0 0 0 0 0 0 0 0 66 0 0 4 0 0 0 12 12 0 0 56 0 0 0 0 0 0 0 0 0 61 0 0 0 0 0 0 0 0 0 0 0 0 0 0 0 0 0 0 0 0 64 0 15 0 0 0 0 0 499 450 145 1 0 0 0 0 0 0 0 2 0 1 0 0 0 0 0 0 0 0 3 0 0 0 0 0 0 0 0 0 0 647 308 351 0 0 0 0 0 0 4 0 9 0 0 0 0 0 0 0 0 0 0 0 0 0 0 0 0 0 0 0 0 0 0 0 0 0 0 0 0 0 0 0 51 7 0 0 0 0 0 0 4 8 158 0 0 0 0 0 0 0 0 3 0 0 0 0 0 0 0 0 0 0 0 0 0 0 0 0 0 0 0 0 15 0 697 0 0 0 0 0 0 0 0 0 0 0 0 0 0 0 0 0 0 0 0 0 0 0 0 0 0 0 0 0 0 0 0 0 0 0 19 0 0 0 0 0 78 0 0 283 0 0 0 0 0 0 2 0 0 0 0 1 0 0 7 0 177 0 0 0 0 0 0 0 0 0 0 0 0 0 0 0 0 0 0 96 0 55 15 1 2 0 0 0 0 16 0 0 0 1 0 0 0 0 0 0 0 0 0 0 0 0 0 0 0 0 0 0 0 0 0 0 0 0 0 0 0 0 22 0 90 0 0 0 0 0 0 153 5 0 0 0 0 0 0 0 0 0 0 0 0 0 168 0 0 0 0 0 0 0 0 0 0 0 0 0 0 0 0 0 0 0 9 57 0 0 0 0 0 0 0 0 0 0 0 0 0 0 0 0 0 0 0 0 0 0 0 0 0 0 0 0 0 0 0 0 0 0 0 0 0 0 0 0 0 0 0 0 0 0 0 0 0 0 0 0 0 0 0 0 0 0 0 0 0 0 0 0 0 0 0 0 0 0 0 0 0 0 0 0 0 0 0 0 3 0 23 0 28 0 0 0 0 19 0 0 0 0 0 0 0 0 0 0 0 0 48 0 382 0 0 0 0 0 0 0 0 0 0 0 0 0 0 0 24 0 2 14 348 0 0 0 8 50 0 1 0 0 0 0 0 0 0 0 0 0 0 117 0 0 0 0 0 0 0 0 0 0 0 0 0 0 0 0 0 0 0 504 0 0 110 0 255 0 0 0 0 0 0 0 0 0 0 0 0 0 46 0 0 0 0 0 0 0 0 0 0 0 0 0 0 0 0 0 0 0 0 0 0 1 0 0 76 6 0 0 0 0 60 8 6 0 0 0 0 0 0 0 0 0 0 Printing Sanity3
offset_index value2173
offset list size2173
reward size2173
potential size2173
-----------------------------------------------------------------------------------------------------------------------------------------------------------------------------------------------------

DRAM Statistics
 CHANNEL 0
 RQ ROW_BUFFER_HIT:        803  ROW_BUFFER_MISS:       2944
 DBUS_CONGESTED:          3
 WQ ROW_BUFFER_HIT:         34  ROW_BUFFER_MISS:        426  FULL:          0

 AVG_CONGESTED_CYCLE: 5
 All warmup complete: 2
Channel 0 Bank busy for read cycles: 0
Channel 0 Bank busy for write cycles: 0
Channel 0
Rank 0
0banks busy for read cycles: 650219309
0banks busy for write cycles: 315
1banks busy for read cycles: 367088
1banks busy for write cycles: 40926
2banks busy for read cycles: 31962
2banks busy for write cycles: 7444
3banks busy for read cycles: 9492
3banks busy for write cycles: 3902
4banks busy for read cycles: 3977
4banks busy for write cycles: 1328
5banks busy for read cycles: 1171
5banks busy for write cycles: 853
6banks busy for read cycles: 86
6banks busy for write cycles: 0
7banks busy for read cycles: 0
7banks busy for write cycles: 0
8banks busy for read cycles: 0
8banks busy for write cycles: 0

CPU 0 Branch Prediction Accuracy: 99.8837% MPKI: 0.20904 Average ROB Occupancy at Mispredict: 30.0362
Branch types
NOT_BRANCH: 164064544 82.0323%
BRANCH_DIRECT_JUMP: 1874465 0.937233%
BRANCH_INDIRECT: 12070930 6.03547%
BRANCH_CONDITIONAL: 12755089 6.37754%
BRANCH_DIRECT_CALL: 3894488 1.94724%
BRANCH_INDIRECT_CALL: 722993 0.361496%
BRANCH_RETURN: 4617438 2.30872%
BRANCH_OTHER: 0 0%

DRAM PAGES: 1048576
Allocated PAGES: 1956
