
*** ChampSim Multicore Out-of-Order Simulator ***

Warmup Instructions: 50000000
Simulation Instructions: 200000000
Number of CPUs: 1
LLC sets: 2048
LLC ways: 16
Off-chip DRAM Size: 4096 MB Channels: 1 Width: 64-bit Data Rate: 6400 MT/s
CPU 0 runs traces/spec2k17/srv_68.champsimtrace.xz
.xz
BTB has LRU replacement policy
ITLB has LRU replacement policy
DTLB has LRU replacement policy
STLB has LRU replacement policy
L1I has LRU replacement policy
L1D has LRU replacement policy
Initialize SRRIP state for L2C
Initialize DRRIP state for LLC
Heartbeat CPU 0 instructions: 10000002 cycles: 2768118 heartbeat IPC: 3.61256 cumulative IPC: 3.61256 (Simulation time: 0 hr 0 min 38 sec) 
Heartbeat CPU 0 instructions: 20000003 cycles: 5532203 heartbeat IPC: 3.61783 cumulative IPC: 3.6152 (Simulation time: 0 hr 1 min 16 sec) 
Heartbeat CPU 0 instructions: 30000003 cycles: 8297098 heartbeat IPC: 3.61677 cumulative IPC: 3.61572 (Simulation time: 0 hr 1 min 53 sec) 
*** Reached end of trace for Core: 0 Repeating trace: traces/spec2k17/srv_68.champsimtrace.xz
Heartbeat CPU 0 instructions: 40000001 cycles: 11058502 heartbeat IPC: 3.62135 cumulative IPC: 3.61713 (Simulation time: 0 hr 2 min 29 sec) 
Heartbeat CPU 0 instructions: 50000000 cycles: 13822160 heartbeat IPC: 3.61839 cumulative IPC: 3.61738 (Simulation time: 0 hr 3 min 7 sec) 

Warmup complete CPU 0 instructions: 50000004 cycles: 13822161 (Simulation time: 0 hr 3 min 7 sec) 

Offsets elements: 
Potential of Offsets elements: 
rewards of Offsets elements: 
Printing Sanity1
offset list size1667
Offsets elements: 
Potential of Offsets elements: 
rewards of Offsets elements: 0 0 191 0 0 6482 1336 0 1666 0 0 0 0 0 0 0 0 0 0 0 0 0 0 0 0 0 0 0 0 0 0 0 0 0 0 7 0 0 0 0 0 0 0 622 0 0 0 0 0 0 0 0 0 0 0 0 0 0 0 0 0 0 0 0 0 116 0 0 0 0 0 0 0 0 0 0 0 0 0 0 0 0 0 0 0 0 0 0 0 0 0 0 0 0 0 0 0 1225 280 0 0 691 406 0 0 0 0 0 0 0 0 0 0 0 0 0 0 0 0 0 0 0 0 0 0 0 0 0 0 0 0 0 0 0 0 0 0 0 0 0 0 0 8 6 4 4 0 173 0 1 0 0 0 0 0 0 0 194 0 0 0 0 4 0 0 292 68 0 0 0 0 0 0 0 0 0 0 0 0 0 0 0 0 0 0 0 0 0 0 0 0 0 0 0 0 0 0 0 0 0 0 0 0 0 0 0 0 0 0 0 0 0 0 0 0 0 0 0 0 0 0 0 0 0 0 0 0 0 0 0 0 0 0 0 0 6 0 1071 0 0 0 0 0 0 0 0 0 0 0 0 0 141 0 0 0 0 0 0 0 0 0 0 0 0 0 0 0 0 0 0 0 0 0 0 0 0 0 0 0 0 0 0 0 0 0 0 0 0 0 0 0 0 0 0 0 0 0 0 0 0 0 0 0 0 0 0 0 0 0 0 0 0 0 0 0 0 0 0 0 0 0 0 0 0 0 0 0 0 0 0 0 0 0 0 0 0 0 0 0 0 0 0 0 0 0 12 0 0 0 0 0 0 0 0 0 0 0 0 0 0 0 0 0 0 0 0 0 0 0 0 0 0 0 0 0 0 0 0 0 0 0 0 0 0 0 0 0 0 92 0 0 0 0 0 0 0 0 0 0 0 0 18 0 0 0 0 0 0 0 0 0 0 0 0 0 426 0 0 0 0 0 0 0 0 0 0 0 0 0 0 0 0 0 0 0 0 0 0 0 0 0 0 0 0 0 0 0 0 0 0 0 0 0 0 0 0 0 0 0 0 0 7 6 68 32 0 0 0 0 0 0 0 0 0 0 0 0 0 0 0 0 0 0 0 0 0 0 0 0 0 0 0 0 0 0 0 0 0 0 0 0 0 1254 0 0 0 0 0 0 0 0 0 0 0 0 0 0 0 0 0 0 0 0 0 0 0 0 0 0 0 0 0 0 0 0 0 0 0 0 0 0 0 0 0 0 0 0 0 0 0 0 0 0 0 0 0 0 0 0 0 0 0 0 14 0 0 0 0 0 0 0 20 121 144 144 168 0 0 0 0 0 0 0 0 0 0 0 0 0 132 0 0 0 0 0 4 0 0 0 0 0 0 0 0 0 0 0 0 0 0 0 0 0 0 0 0 0 0 0 0 0 0 0 0 0 0 0 0 0 0 0 0 0 0 0 0 0 0 0 0 0 0 0 0 0 0 0 0 0 0 0 0 0 0 0 0 0 0 0 0 98 80 0 3 0 0 0 0 0 0 0 0 0 0 0 234 25 540 0 0 0 0 0 0 0 0 0 36 0 0 0 0 0 8 18 16 70 72 0 0 0 43 0 0 0 0 0 0 0 0 0 0 0 0 0 0 0 0 0 0 0 0 144 144 0 0 0 80 144 110 0 144 144 288 144 0 0 0 0 0 0 0 0 0 0 0 0 0 0 0 0 0 0 50 144 84 84 102 96 15 12 25 90 45 9 9 9 40 0 0 72 36 21 0 0 0 0 0 0 0 0 0 0 0 0 0 0 0 0 0 0 0 0 0 0 0 0 0 0 0 0 0 0 0 0 0 0 0 0 170 0 0 0 0 0 0 0 0 0 0 0 0 0 56 0 0 0 0 0 0 0 0 0 0 0 0 0 0 0 0 0 0 0 0 259 0 0 0 0 0 0 0 0 0 0 0 0 0 0 0 0 0 0 0 0 0 0 0 0 0 0 0 0 0 0 0 0 0 0 0 6 0 0 0 24 74 53 108 18 9 27 0 0 0 0 24 108 252 252 72 165 225 148 42 36 36 9 9 9 12 3 0 0 0 0 0 0 0 0 0 0 0 0 0 0 0 0 0 0 0 0 0 0 0 0 0 0 51 0 0 0 0 0 0 0 0 0 0 0 0 0 0 0 0 0 0 0 0 0 0 0 0 0 0 0 0 0 0 0 0 0 0 0 0 4 0 0 102 0 0 120 0 1 0 0 0 0 0 0 0 0 0 0 0 0 0 0 0 0 0 0 0 0 0 0 0 0 0 1 0 0 0 0 0 0 0 0 0 0 0 0 0 0 0 0 0 0 0 0 0 0 0 0 0 0 0 0 0 0 0 0 0 0 0 0 0 0 0 0 0 0 0 0 0 0 0 0 0 0 0 0 0 0 0 0 0 0 2 0 0 0 0 0 0 0 0 0 0 0 0 0 0 0 0 0 0 0 22 0 2 12 0 0 0 0 0 0 34 1 0 0 3 0 0 0 0 0 0 0 0 0 0 0 0 0 0 0 0 0 0 0 0 0 0 0 0 0 0 0 0 0 0 0 123 229 0 0 9 0 102 0 0 0 0 0 0 0 0 0 0 0 0 0 0 0 0 0 0 0 0 0 0 0 0 0 0 0 0 0 0 0 0 0 0 0 0 0 0 0 0 0 0 0 0 0 0 0 12 0 0 0 0 0 0 0 0 0 0 0 0 0 464 0 0 0 0 0 0 0 0 8 0 0 0 0 0 0 0 0 0 0 0 0 0 0 0 0 0 0 0 0 0 0 0 0 0 0 0 0 0 0 0 0 0 0 0 0 0 0 0 0 0 0 0 0 0 0 0 0 0 0 0 0 0 0 0 0 4 0 0 0 0 0 0 0 0 0 0 0 0 0 0 0 0 0 0 0 0 0 0 0 0 0 0 0 0 0 0 0 0 0 0 0 6 0 0 0 6 0 0 0 0 0 0 0 0 0 0 0 0 51 0 0 0 3 0 0 0 0 0 0 0 0 0 0 0 0 0 0 0 0 0 0 0 0 0 0 0 56 332 0 0 0 0 0 0 0 0 445 0 0 0 0 0 0 0 0 0 0 0 0 0 0 0 0 0 0 0 0 0 0 0 0 0 0 0 0 0 0 0 0 0 0 0 0 0 89 0 0 0 0 0 0 0 0 2 0 0 0 0 0 0 0 0 0 0 0 0 178 0 0 0 0 0 0 0 0 0 0 0 0 0 0 0 0 0 0 22 85 0 2 0 19 16 0 0 0 0 3 0 0 0 0 0 0 0 0 0 0 0 0 0 0 0 0 0 0 0 0 0 0 0 0 0 0 0 0 0 0 0 0 58 18 0 17 247 0 0 0 32 0 0 0 0 0 0 0 0 0 0 0 0 0 0 0 0 0 0 0 0 0 0 0 0 0 0 0 0 0 0 0 0 0 0 14 2 0 0 0 0 0 0 0 0 0 0 0 0 0 0 0 8 0 0 0 0 0 0 0 0 0 0 0 0 0 0 0 0 0 0 0 0 163 0 0 693 14 0 0 0 0 0 4 0 0 0 0 0 0 0 0 7 0 0 88 0 0 0 0 0 0 20 0 0 0 0 0 0 0 0 0 0 0 0 0 147 292 0 0 0 0 0 0 0 0 0 0 0 0 0 128 0 0 0 0 0 0 0 0 0 0 0 0 0 0 0 0 0 0 8 0 0 0 0 0 0 0 0 0 0 118 0 0 0 0 0 4 0 0 40 0 0 0 0 0 0 0 
Printing Sanity2
Heartbeat CPU 0 instructions: 60000001 cycles: 36345720 heartbeat IPC: 0.44398 cumulative IPC: 0.443979 (Simulation time: 0 hr 4 min 11 sec) 
*** Reached end of trace for Core: 0 Repeating trace: traces/spec2k17/srv_68.champsimtrace.xz
Heartbeat CPU 0 instructions: 70000003 cycles: 58198938 heartbeat IPC: 0.457599 cumulative IPC: 0.450686 (Simulation time: 0 hr 5 min 12 sec) 
Heartbeat CPU 0 instructions: 80000001 cycles: 80208548 heartbeat IPC: 0.454347 cumulative IPC: 0.4519 (Simulation time: 0 hr 6 min 14 sec) 
Heartbeat CPU 0 instructions: 90000000 cycles: 102893331 heartbeat IPC: 0.440824 cumulative IPC: 0.449079 (Simulation time: 0 hr 7 min 16 sec) 
*** Reached end of trace for Core: 0 Repeating trace: traces/spec2k17/srv_68.champsimtrace.xz
Heartbeat CPU 0 instructions: 100000001 cycles: 124301104 heartbeat IPC: 0.46712 cumulative IPC: 0.452575 (Simulation time: 0 hr 8 min 18 sec) 
Heartbeat CPU 0 instructions: 110000000 cycles: 146621247 heartbeat IPC: 0.448026 cumulative IPC: 0.45181 (Simulation time: 0 hr 9 min 21 sec) 
Heartbeat CPU 0 instructions: 120000001 cycles: 169072551 heartbeat IPC: 0.445408 cumulative IPC: 0.450885 (Simulation time: 0 hr 10 min 24 sec) 
*** Reached end of trace for Core: 0 Repeating trace: traces/spec2k17/srv_68.champsimtrace.xz
Heartbeat CPU 0 instructions: 130000001 cycles: 190374026 heartbeat IPC: 0.469451 cumulative IPC: 0.453125 (Simulation time: 0 hr 11 min 24 sec) 
Heartbeat CPU 0 instructions: 140000000 cycles: 212735758 heartbeat IPC: 0.447193 cumulative IPC: 0.452458 (Simulation time: 0 hr 12 min 26 sec) 
Heartbeat CPU 0 instructions: 150000002 cycles: 235120433 heartbeat IPC: 0.446734 cumulative IPC: 0.451879 (Simulation time: 0 hr 13 min 27 sec) 
*** Reached end of trace for Core: 0 Repeating trace: traces/spec2k17/srv_68.champsimtrace.xz
Heartbeat CPU 0 instructions: 160000001 cycles: 256632332 heartbeat IPC: 0.464859 cumulative IPC: 0.453029 (Simulation time: 0 hr 14 min 30 sec) 
Heartbeat CPU 0 instructions: 170000000 cycles: 278893411 heartbeat IPC: 0.449214 cumulative IPC: 0.452708 (Simulation time: 0 hr 15 min 30 sec) 
Heartbeat CPU 0 instructions: 180000001 cycles: 301340735 heartbeat IPC: 0.445487 cumulative IPC: 0.452145 (Simulation time: 0 hr 16 min 30 sec) 
*** Reached end of trace for Core: 0 Repeating trace: traces/spec2k17/srv_68.champsimtrace.xz
Heartbeat CPU 0 instructions: 190000000 cycles: 322812806 heartbeat IPC: 0.465721 cumulative IPC: 0.453088 (Simulation time: 0 hr 17 min 31 sec) 
Heartbeat CPU 0 instructions: 200000000 cycles: 344831216 heartbeat IPC: 0.454165 cumulative IPC: 0.45316 (Simulation time: 0 hr 18 min 35 sec) 
Heartbeat CPU 0 instructions: 210000000 cycles: 367409786 heartbeat IPC: 0.442898 cumulative IPC: 0.452505 (Simulation time: 0 hr 19 min 37 sec) 
*** Reached end of trace for Core: 0 Repeating trace: traces/spec2k17/srv_68.champsimtrace.xz
Heartbeat CPU 0 instructions: 220000000 cycles: 388721659 heartbeat IPC: 0.469222 cumulative IPC: 0.453455 (Simulation time: 0 hr 20 min 38 sec) 
Heartbeat CPU 0 instructions: 230000001 cycles: 410959354 heartbeat IPC: 0.449687 cumulative IPC: 0.453244 (Simulation time: 0 hr 21 min 40 sec) 
Heartbeat CPU 0 instructions: 240000002 cycles: 433395584 heartbeat IPC: 0.445708 cumulative IPC: 0.452841 (Simulation time: 0 hr 22 min 42 sec) 
*** Reached end of trace for Core: 0 Repeating trace: traces/spec2k17/srv_68.champsimtrace.xz
Heartbeat CPU 0 instructions: 250000002 cycles: 454728641 heartbeat IPC: 0.468756 cumulative IPC: 0.453611 (Simulation time: 0 hr 23 min 41 sec) 
Finished CPU 0 instructions: 200000002 cycles: 440906481 cumulative IPC: 0.453611 (Simulation time: 0 hr 23 min 41 sec) 

ChampSim completed all CPUs

Region of Interest Statistics

CPU 0 cumulative IPC: 0.453611 instructions: 200000002 cycles: 440906481
ITLB TOTAL     ACCESS:   31180655  HIT:   30444943  MISS:     735712  HIT %:    97.6405  MISS %:    2.35951   MPKI: 3.67856
ITLB LOAD TRANSLATION ACCESS:   31180655  HIT:   30444943  MISS:     735712  HIT %:    97.6405  MISS %:    2.35951   MPKI: 3.67856
ITLB PREFETCH  REQUESTED:          0  ISSUED:          0  USEFUL:          0  USELESS:          0
ITLB USEFUL LOAD PREFETCHES:          0 PREFETCH ISSUED TO LOWER LEVEL:          0  ACCURACY: -nan
ITLB TIMELY PREFETCHES:          0 LATE PREFETCHES: 0 DROPPED PREFETCHES: 0
ITLB PREFETCHES SAME FILL-ORIGIN LEVEL: 0 DIFFERENT FILL-ORIGIN LEVEL: 0
ITLB AVERAGE MISS LATENCY: 14.5536 cycles
ITLB RQ	ACCESS:   38047695	FORWARD:          0	MERGED:    6687416	TO_CACHE:   31360279

DTLB TOTAL     ACCESS:   36844105  HIT:   34454452  MISS:    2389653  HIT %:    93.5142  MISS %:    6.48585   MPKI: 11.9483
DTLB LOAD TRANSLATION ACCESS:   36844105  HIT:   34454452  MISS:    2389653  HIT %:    93.5142  MISS %:    6.48585   MPKI: 11.9483
DTLB PREFETCH  REQUESTED:          0  ISSUED:          0  USEFUL:          0  USELESS:          0
DTLB USEFUL LOAD PREFETCHES:          0 PREFETCH ISSUED TO LOWER LEVEL:          0  ACCURACY: -nan
DTLB TIMELY PREFETCHES:          0 LATE PREFETCHES: 0 DROPPED PREFETCHES: 0
DTLB PREFETCHES SAME FILL-ORIGIN LEVEL: 0 DIFFERENT FILL-ORIGIN LEVEL: 0
DTLB AVERAGE MISS LATENCY: 14.0925 cycles
DTLB RQ	ACCESS:   47208338	FORWARD:          0	MERGED:   10222040	TO_CACHE:   36986298

STLB TOTAL     ACCESS:    3207898  HIT:    2829712  MISS:     378186  HIT %:    88.2108  MISS %:    11.7892   MPKI: 1.89093
STLB LOAD TRANSLATION ACCESS:    3125364  HIT:    2747178  MISS:     378186  HIT %:    87.8995  MISS %:    12.1005   MPKI: 1.89093
STLB TRANSLATION FROM L1D PREFETCHER ACCESS:      82534  HIT:      82534  MISS:          0  HIT %:        100  MISS %:          0   MPKI: 0
STLB PREFETCH  REQUESTED:          0  ISSUED:          0  USEFUL:          0  USELESS:          0
STLB USEFUL LOAD PREFETCHES:          0 PREFETCH ISSUED TO LOWER LEVEL:          0  ACCURACY: -nan
STLB TIMELY PREFETCHES:          0 LATE PREFETCHES: 0 DROPPED PREFETCHES: 24653
STLB PREFETCHES SAME FILL-ORIGIN LEVEL: 0 DIFFERENT FILL-ORIGIN LEVEL: 0
STLB AVERAGE MISS LATENCY: 42.7729 cycles
STLB RQ	ACCESS:    3261738	FORWARD:          0	MERGED:      29188	TO_CACHE:    3232550

STLB Hit, L1D data hit: 0
STLB Hit, L2C data hit: 0
STLB Hit, LLC data hit: 0
STLB Hit, LLC data miss: 0
STLB STLB hints to L2: 0
L1D TOTAL     ACCESS:   46806960  HIT:   44465166  MISS:    2341794  HIT %:    94.9969  MISS %:    5.00309   MPKI: 11.709
L1D LOAD      ACCESS:   27434675  HIT:   25408251  MISS:    2026424  HIT %:    92.6136  MISS %:    7.38636   MPKI: 10.1321
L1D RFO       ACCESS:   19264016  HIT:   18954815  MISS:     309201  HIT %:    98.3949  MISS %:    1.60507   MPKI: 1.546
L1D PREFETCH  ACCESS:     108269  HIT:     102100  MISS:       6169  HIT %:    94.3022  MISS %:    5.69785   MPKI: 0.030845
AGUS PREFETCH L1 MISS: 0
L1D PREFETCH  REQUESTED:     281237  ISSUED:     281237  USEFUL:       3934  USELESS:       2235
L1D USEFUL LOAD PREFETCHES:       3934 PREFETCH ISSUED TO LOWER LEVEL:       6739  ACCURACY: 58.3766
L1D TIMELY PREFETCHES:       3934 LATE PREFETCHES: 565 DROPPED PREFETCHES: 24653
L1D PREFETCHES SAME FILL-ORIGIN LEVEL: 6739 DIFFERENT FILL-ORIGIN LEVEL: 0
L1D AVERAGE MISS LATENCY: 58489.3 cycles
L1D RQ	ACCESS:   42591371	FORWARD:          0	MERGED:   14803222	TO_CACHE:   27561084
L1D WQ	ACCESS:   19969250	FORWARD:     227242	MERGED:     321996	TO_CACHE:   19647254
L1D PQ	ACCESS:     144862	FORWARD:          0	MERGED:       8310	TO_CACHE:     136375

L1D UNIQUE REGIONS ACCESSED: 0
L1D REGIONS CONFLICTS: 0
L1D Cross Page Prefetch Requests: 29445
L1D Same Page Prefetch Requests: 115417
L1D ROI Sum of L1D PQ occupancy: 2449306
L1D PREFETCHES PUSHED FROM L2C: 0
L1I TOTAL     ACCESS:   36406610  HIT:   31636539  MISS:    4770071  HIT %:    86.8978  MISS %:    13.1022   MPKI: 23.8504
L1I LOAD      ACCESS:   36406610  HIT:   31636539  MISS:    4770071  HIT %:    86.8978  MISS %:    13.1022   MPKI: 23.8504
L1I PREFETCH  REQUESTED:          0  ISSUED:          0  USEFUL:          0  USELESS:          0
L1I USEFUL LOAD PREFETCHES:          0 PREFETCH ISSUED TO LOWER LEVEL:          0  ACCURACY: -nan
L1I TIMELY PREFETCHES:          0 LATE PREFETCHES: 0 DROPPED PREFETCHES: 0
L1I PREFETCHES SAME FILL-ORIGIN LEVEL: 0 DIFFERENT FILL-ORIGIN LEVEL: 0
L1I AVERAGE MISS LATENCY: 26.5079 cycles
L1I RQ	ACCESS:   56572660	FORWARD:          0	MERGED:   18524965	TO_CACHE:   38047695

BTB TOTAL     ACCESS:   21751551  HIT:   17439369  MISS:    4312182  HIT %:    80.1753  MISS %:    19.8247   MPKI: 21.5609
BTB BRANCH_DIRECT_JUMP	ACCESS:    1714565  HIT:    1465961  MISS:     248604
BTB BRANCH_INDIRECT	ACCESS:    9411853  HIT:    7323167  MISS:    2088686
BTB BRANCH_CONDITIONAL	ACCESS:    4498891  HIT:    4091160  MISS:     407731
BTB BRANCH_DIRECT_CALL	ACCESS:    2431594  HIT:    1968834  MISS:     462760
BTB BRANCH_INDIRECT_CALL	ACCESS:     630486  HIT:     593321  MISS:      37165
BTB BRANCH_RETURN	ACCESS:    3064162  HIT:    1996926  MISS:    1067236
BTB BRANCH_OTHER ACCESS:          0  HIT:          0  MISS:          0

L2C TOTAL     ACCESS:    8600796  HIT:    5330904  MISS:    3269892  HIT %:    61.9815  MISS %:    38.0185   MPKI: 16.3495
L2C LOAD      ACCESS:    6795780  HIT:    3907430  MISS:    2888350  HIT %:    57.4979  MISS %:    42.5021   MPKI: 14.4417
L2C DATA LOAD MPKI: 4.95543
L2C INSTRUCTION LOAD MPKI: 9.48632
L2C RFO       ACCESS:     309121  HIT:     166665  MISS:     142456  HIT %:    53.9158  MISS %:    46.0842   MPKI: 0.71228
L2C PREFETCH  ACCESS:       6739  HIT:       6107  MISS:        632  HIT %:    90.6218  MISS %:    9.37825   MPKI: 0.00316
AGUS PREFETCH L1 MISS: 0
L2C DATA PREFETCH MPKI: 0.00316
L2C INSTRUCTION PREFETCH MPKI: 0
L2C WRITEBACK ACCESS:     963568  HIT:     909572  MISS:      53996  HIT %:    94.3962  MISS %:    5.60376   MPKI: 0.26998
L2C LOAD TRANSLATION ACCESS:     488537  HIT:     304170  MISS:     184367  HIT %:    62.2614  MISS %:    37.7386   MPKI: 0.921835
L2C TRANSLATION FROM L1D PREFETCHER ACCESS:      37051  HIT:      36960  MISS:         91  HIT %:    99.7544  MISS %:   0.245607   MPKI: 0.000455
L2C PREFETCH  REQUESTED:          0  ISSUED:          0  USEFUL:        392  USELESS:        330
L2C USEFUL LOAD PREFETCHES:        392 PREFETCH ISSUED TO LOWER LEVEL:        632  ACCURACY: 62.0253
L2C TIMELY PREFETCHES:        392 LATE PREFETCHES: 0 DROPPED PREFETCHES: 0
L2C PREFETCHES SAME FILL-ORIGIN LEVEL: 0 DIFFERENT FILL-ORIGIN LEVEL: 0
L2C AVERAGE MISS LATENCY: 44.2466 cycles
L2C RQ	ACCESS:    7630713	FORWARD:          0	MERGED:          0	TO_CACHE:    7630489
L2C WQ	ACCESS:     963569	FORWARD:        224	MERGED:          0	TO_CACHE:     963569
L2C PQ	ACCESS:       6739	FORWARD:          0	MERGED:          0	TO_CACHE:       6739

L2C Instructions Evicting Data 685924
L2C Translations Evicting Data 67150
L2C Data Evicting Data 415301
L2C Instructions Evicting Instructions 1105128
L2C Translations Evicting Instructions 107571
L2C Data Evicting Instructions 653531
L2C Instructions Evicting Translations 106212
L2C Translations Evicting Translations 9737
L2C Data Evicting Translations 65342
L2C Dense regions hint from L2: 0
PSCL5 TOTAL     ACCESS:     402838  HIT:     402838  MISS:          0  HIT %:        100  MISS %:          0   MPKI: 0
PSCL5 LOAD TRANSLATION ACCESS:     378185  HIT:     378185  MISS:          0  HIT %:        100  MISS %:          0   MPKI: 0
PSCL5 TRANSLATION FROM L1D PREFETCHER ACCESS:      24653  HIT:      24653  MISS:          0  HIT %:        100  MISS %:          0   MPKI: 0
PSCL5 PREFETCH  REQUESTED:          0  ISSUED:          0  USEFUL:          0  USELESS:          0
PSCL5 USEFUL LOAD PREFETCHES:          0 PREFETCH ISSUED TO LOWER LEVEL:          0  ACCURACY: -nan
PSCL5 TIMELY PREFETCHES:          0 LATE PREFETCHES: 0 DROPPED PREFETCHES: 0
PSCL5 PREFETCHES SAME FILL-ORIGIN LEVEL: 0 DIFFERENT FILL-ORIGIN LEVEL: 0

PSCL4 TOTAL     ACCESS:     371603  HIT:     370988  MISS:        615  HIT %:    99.8345  MISS %:   0.165499   MPKI: 0.003075
PSCL4 LOAD TRANSLATION ACCESS:     351889  HIT:     351274  MISS:        615  HIT %:    99.8252  MISS %:   0.174771   MPKI: 0.003075
PSCL4 TRANSLATION FROM L1D PREFETCHER ACCESS:      19714  HIT:      19714  MISS:          0  HIT %:        100  MISS %:          0   MPKI: 0
PSCL4 PREFETCH  REQUESTED:          0  ISSUED:          0  USEFUL:          0  USELESS:          0
PSCL4 USEFUL LOAD PREFETCHES:          0 PREFETCH ISSUED TO LOWER LEVEL:          0  ACCURACY: -nan
PSCL4 TIMELY PREFETCHES:          0 LATE PREFETCHES: 0 DROPPED PREFETCHES: 0
PSCL4 PREFETCHES SAME FILL-ORIGIN LEVEL: 0 DIFFERENT FILL-ORIGIN LEVEL: 0

PSCL3 TOTAL     ACCESS:     401674  HIT:     399670  MISS:       2004  HIT %:    99.5011  MISS %:   0.498912   MPKI: 0.01002
PSCL3 LOAD TRANSLATION ACCESS:     377021  HIT:     375017  MISS:       2004  HIT %:    99.4685  MISS %:   0.531535   MPKI: 0.01002
PSCL3 TRANSLATION FROM L1D PREFETCHER ACCESS:      24653  HIT:      24653  MISS:          0  HIT %:        100  MISS %:          0   MPKI: 0
PSCL3 PREFETCH  REQUESTED:          0  ISSUED:          0  USEFUL:          0  USELESS:          0
PSCL3 USEFUL LOAD PREFETCHES:          0 PREFETCH ISSUED TO LOWER LEVEL:          0  ACCURACY: -nan
PSCL3 TIMELY PREFETCHES:          0 LATE PREFETCHES: 0 DROPPED PREFETCHES: 0
PSCL3 PREFETCHES SAME FILL-ORIGIN LEVEL: 0 DIFFERENT FILL-ORIGIN LEVEL: 0

PSCL2 TOTAL     ACCESS:     390441  HIT:     282708  MISS:     107733  HIT %:    72.4074  MISS %:    27.5926   MPKI: 0.538665
PSCL2 LOAD TRANSLATION ACCESS:     378186  HIT:     270453  MISS:     107733  HIT %:    71.5132  MISS %:    28.4868   MPKI: 0.538665
PSCL2 TRANSLATION FROM L1D PREFETCHER ACCESS:      12255  HIT:      12255  MISS:          0  HIT %:        100  MISS %:          0   MPKI: 0
PSCL2 PREFETCH  REQUESTED:          0  ISSUED:          0  USEFUL:          0  USELESS:          0
PSCL2 USEFUL LOAD PREFETCHES:          0 PREFETCH ISSUED TO LOWER LEVEL:          0  ACCURACY: -nan
PSCL2 TIMELY PREFETCHES:          0 LATE PREFETCHES: 0 DROPPED PREFETCHES: 0
PSCL2 PREFETCHES SAME FILL-ORIGIN LEVEL: 0 DIFFERENT FILL-ORIGIN LEVEL: 0

LLC TOTAL     ACCESS:    3660478  HIT:    3356288  MISS:     304190  HIT %:    91.6899  MISS %:    8.31012   MPKI: 1.52095
LLC LOAD      ACCESS:    2888337  HIT:    2645556  MISS:     242781  HIT %:    91.5944  MISS %:    8.40556   MPKI: 1.2139
LLC RFO       ACCESS:     142454  HIT:      93258  MISS:      49196  HIT %:    65.4653  MISS %:    34.5347   MPKI: 0.24598
LLC PREFETCH  ACCESS:        632  HIT:        630  MISS:          2  HIT %:    99.6835  MISS %:   0.316456   MPKI: 1e-05
AGUS PREFETCH L1 MISS: 0
LLC WRITEBACK ACCESS:     444597  HIT:     442390  MISS:       2207  HIT %:    99.5036  MISS %:   0.496405   MPKI: 0.011035
LLC LOAD TRANSLATION ACCESS:     184367  HIT:     174364  MISS:      10003  HIT %:    94.5744  MISS %:    5.42559   MPKI: 0.050015
LLC TRANSLATION FROM L1D PREFETCHER ACCESS:         91  HIT:         90  MISS:          1  HIT %:    98.9011  MISS %:     1.0989   MPKI: 5e-06
LLC PREFETCH  REQUESTED:          0  ISSUED:          0  USEFUL:          1  USELESS:          1
LLC USEFUL LOAD PREFETCHES:          1 PREFETCH ISSUED TO LOWER LEVEL:          2  ACCURACY: 50
LLC TIMELY PREFETCHES:          1 LATE PREFETCHES: 0 DROPPED PREFETCHES: 0
LLC PREFETCHES SAME FILL-ORIGIN LEVEL: 0 DIFFERENT FILL-ORIGIN LEVEL: 0
LLC AVERAGE MISS LATENCY: 158.464 cycles
LLC RQ	ACCESS:    3215264	FORWARD:          0	MERGED:          0	TO_CACHE:    3215249
LLC WQ	ACCESS:     444597	FORWARD:         15	MERGED:          0	TO_CACHE:     444597
LLC PQ	ACCESS:        632	FORWARD:          0	MERGED:          0	TO_CACHE:        632

LLC Dense regions hint to LLC: 0

RAW hits: 3162812
Loads Generated: 45754181
Loads sent to L1D: 42591371
Stores Generated: 19969261
Stores sent to L1D: 19969250
Major fault: 0 Minor fault: 5849
Allocated PAGES: 5849
ucb ended
-----------------------------------------------------------------------------------------------------------------------------------------------------------------------------------------------------
Offsets elements: -213140 -51545 13 13247 252032 1 -3 36057 -1 -37029 1135 -8905691 8906287 -188 4288 -3867 6555 -8913075 202 4086 2688 -6555 -8906520 8906326 1234 -1204 -9150459 9309823 -9065718 4100 -9207869 9203783 219 -316 -221 588 6194 -6478 -4226 1868 -9152229 1241055 -1241054 2 9156974 -220992 213138 -213138 213143 -8935985 8930711 217901 5948 -9154561 9150527 30 1204 158160 -9309823 244105 -297482 8989266 -51546 265291 -265284 -7 265292 -265279 301333 -35893 35894 -35362 339 -266321 13257 251060 1665 3448 -1478126 1474442 -9065722 8905750 36350 -9186304 7676090 1509701 -1509701 1474133 -1473118 1473662 -1474677 -7676090 9186304 -36010 4996 31014 -9186303 3 -4 1241059 -1241059 4 -5 9150437 4250 -9154687 9150417 4163 -8910379 8906286 8906093 -9150291 9150740 -9150739 244196 8906288 -4032 -8906356 -83 4183 -3816 -284 -1742 -4397640327646 4397640323420 -4397507371504 4397507369787 -4397640323571 4397631173062 9150717 -182 4478 -4555 4555 -4661 4649 -4678 4243 -8910370 -244195 8906090 82 4914 -4510 -607 5419 -8911379 -9 8906011 491 -394 6668 213142 -8904918 8912768 -213142 -8904917 -244205 8935980 -213141 -38286 -8897695 -244153 1241009 -1241008 -42 244194 8 -244201 7706075 -4397638926400 2691228 -2691228 2691229 4397628529096 2051217 -2051218 -4397631220324 4397631464519 -4397628773291 47263 4397631173063 -4397628529097 4397636235263 -7706166 -4397631173066 -47260 47260 4397631417259 -4397631417256 -4397631173062 4397631173066 -4397628529098 -2643968 2643969 4397628529097 -4398018050252 4398018294454 8906080 -8911388 -244196 9150482 -4397640327645 4397640323419 -4397507372592 4397507370929 -7099342 -1807024 -44 9150285 -9155583 244195 -4398018294370 4398018294380 8911378 -244193 244193 -4397631417259 7706166 -7706167 -4397631220318 47253 9310351 -1213744 -8096606 -4397628495067 4397636591673 -4397636591672 4397628495066 -4397631220327 2691227 4397636625706 -6045391 -4397630546280 130395148 -130395148 -133086376 4397630580314 -4397631417255 4397638879228 -7461973 -4397631417254 4397638879227 -7706163 9310349 -1604278 -4397636788430 4397629082360 7706070 -7706071 -4397631220323 5 133074162 -133074167 4397638926399 -4397505852232 4397498146161 8072142 -4397625149356 42386 -11467888 7664 11461273 389 -1436 4397617034825 -4397617034825 4397617034824 -4397626345175 -48963 4397617083789 -7706070 -4397628478102 4397628478102 -4397628535042 4397636246357 -7711313 9310346 -4397640530677 133086553 4397502672286 -4538508 -9310346 -4397617077216 -11400888 11400887 -11457829 11457829 4397626387561 -4397626388668 4397617322515 -4397628858247 4397628858241 2559014 -526555 4397629384802 7808368 -4397636641583 130400398 -130775390 374998 -419617 497520 4397628755306 -4397628552925 -280290 -130400392 4397636641577 -4397636563674 -604060 806441 4397628308728 9310348 -1257785 -7808368 -4397628833215 -374992 130400392 -130820009 -4397636641577 280284 -526151 4397629115171 -4397637821459 130322489 -130120107 4397628308730 244189 -4397631417253 4397638879226 -4397636846768 4397629384795 -4397631417252 4397638879225 -4397636775433 -2105900 2105900 4397638379619 -4397640485517 4397638881327 -4397638881327 2105898 4397636779542 -4397636850878 71337 -71337 4397629140609 -4397628478104 -56940 56940 -389572348 389572346 4397636557071 -7834772 -4397628722298 -50054 12413 4397636227097 -7711350 -9310345 9310345 -9310343 9310343 -4397637788451 4398026129417 -4397636614003 56933 4397628722298 -4397628772353 50055 -50055 -7711347 -9310342 -4397628478113 4397628722300 -4397628722299 -56933 -7711342 9310338 -9310336 9310336 -9310334 9310334 -9310332 -4397617077237 42394 4397625067342 -4397625109735 42393 -42393 4397617321416 -4397628746910 -616555 12042049 118944017 4397498046251 9397301 -4397626387569 118944002 -118944002 118944006 11 4397498046294 -4397616990320 42391 -42391 4397617321414 11425497 -12042052 130985980 4397498046162 -4397616990090 4397626387566 -4397626387010 118944906 6 4397497401501 -4397616346419 -557 -4397626387565 42389 -42389 4397617321412 -4397617321411 -11425499 12042053 4397626387564 -4397638379623 4397629069283 -4397498133719 -130935564 11992058 -4397626387563 -11467887 11425501 -11425502 4397617321410 -4397629363466 12042056 -12042055 4397626387562 -4397507443638 -4397628982146 130935442 4397498042375 -4397616985768 4397626387563 -4397626387561 -1107 -526556 4397637193170 -4397629208207 374992 4397628833209 -4397629252826 130820009 -130322489 -77903 280290 -202381 -130926549 4397629115175 9310344 -4397637619078 4397636361292 -4397628833209 -806441 604060 4397498188626 -4397628308733 4397637619077 4397628308734 -4397617078498 4397617322683 -4397498375033 -133042218 4397638879224 -4397638879225 -4397629313460 -2103791 -4397638879227 2032458 4397629140612 9310342 -9310341 9310341 -9310340 -9310337 9310337 -4397617077233 -11467886 11425494 42395 -42392 -1100 1107 42385 11425502 4397617321408 -11992059 130935539 -130935539 -2 -4397626387564 42387 -42388 4397617321411 12042054 -11992060 130935575 -130935575 130935579 4397498042831 -4397616986358 4397626387565 -4397626387566 4397617321413 -4397617279023 -42390 -11425497 11425499 -12042054 49996 130935586 -118943530 118943534 4397507444032 -4397626387567 118943542 4397498377874 -11425494 130369037 -130369038 4397629028412 -4397616986363 4397498046329 86898 -4397617077229 4397498046268 -4397616990292 42392 -616556 12084441 4397617279024 -4397628746911 11468932 -11468931 4397628502721 -4397617034837 11467885 -11467885 4397628502723 9310340 -9310339 9310339 -9310338 9310335 -9310333 -4397617033405 -11491712 4397628525117 -4397617077239 4397626387570 -4397637813063 4397628502732 9310330 -4397638429617 4397629119287 9310329 -4397637879742 4397628569413 -154992 145511 312 22337 -4976 -9318521 9300848 -145512 17673 4976 -22337 -9301161 244174 641343 -58012 -2684393 4397631220353 -4397629119292 532288 140 -144 4397628587001 -4397629119290 -388932590 388946793 4397629105087 9310327 -4397638429618 4397629119292 244173 -4397629363464 532294 -528199 4397629115202 4089 4397629115201 9300847 -9301164 -4397629119285 641344 4397631220350 -4397629105267 -9924 9925 -9925 485380 -475456 510196 -510196 4397629115192 -4397629115192 4397629359368 -4397629349445 4397637162132 -4397636645901 -333650 -85360 -107141 4397636826379 -7711190 -4397629115189 4397629359365 -4397629349441 4397629890782 -4397629890781 35835 -35835 4397629069432 -4397629069432 -35836 4397633074302 5332144 -9301111 -74 288223780708398208 -2200619250622 2200619250622 4084 -4084 -570212 574296 -574296 3684 -21397 563866 24306 -24306 -343 24645 -245 -24400 -24646 24649 -29581 -469982 -2200618724362 2200618724365 -12300267 12805093 -12805093 -2200606423897 2200606423897 -2200606363562 2200619168653 -5268 5273 -8 20 -15 23 -24 -2200619159244 2200619159264 -25 -2200619159434 2200619159457 -17 -5273 -29576 29579 -24643 -24644 24646 -24305 24308 -250 254 -288223780708398388 -4398018296123 4398018296133 -10 8911388 -9155560 8056866 -7812687 -244178 -4397628922686 333650 4397628589036 -4397629008046 4397629115189 -9923 4397628604996 9924 4397629105266 -4397628629813 -485380 4397629105269 -9310327 -4397629119291 4397638420137 22650 -17360 489476 60335 4397628569477 -9480 4977 -17361 9155336 145512 17672 -17673 17674 -4397629363465 4397628477947 -4397628535961 -583331 -2101062 -4397631220354 -386831526 4398018051880 -4397628587003 -532293 4397629119291 -4397629105088 4397638415414 532434 -532433 532293 4397629119290 -4397629115201 4397638416048 475455 4397628849172 7812687 -4397637162132 516231 4397636633878 -4397636826379 107141 4397629252224 288223780708398134 -3838 -570458 563865 24648 -24307 24309 -254 255 -73 -244171 9155559 -8911381 -244179 4397629115187 4397629105268 -9926 -485379 9923 -4397628604996 4397628604998 9310326 -4397638420137 4397638274625 -4397638438697 4397638416360 17361 60399 2101062 -2101063 4397631220354 -4398018051880 -532289 4397628587003 -4397629115202 -4088 4397628477944 -4397628535956 2115083 588173 -24308 24307 -24651 24399 252 4398027207511 10 8056865 -8056866 -516231 97221 4397629105267 -500271 4397628629812 -4397637879806 4397637870325 -145511 -9318522 244102 -244183 7 8911381 -9155559 4397628922686 -4397629115187 -97221 4397638270536 -244174 -4398018051949 244178 9920 -9481 -9323498 163185 4397633038466 -24650 24653 -252 -288223780708398459 71 4398018296123 -6 -4397638416047 4397638433720 4397629252221 -4397629349444 35836 24647 -24311 24310 -71 288223780708398205 -288223780708398207 389464877 14203 518230 4397628586858 4397638429618 528205 -528198 -192501 -9921 -6925676 -342 -24647 -24310 24315 -288223780708398134 -4397638274625 9323498 -9301159 4397628587002 -4398018051881 4398027362207 -9066153 14204 -140 -532288 -8056863 7711190 -4397636300228 4397629166864 -4397629359365 4397629359362 97220 4397629793562 24304 -24653 24400 -24399 -288223780708373735 -4398018296133 9300846 154992 -4397638420136 4397638442786 -4397638416360 4397629115199 4397629349444 -4397629359368 4397637172055 -15958 -317692 566776 -588172 588174 24314 -24313 -24312 -24652 -288223780708373734 475454 4397628629811 4397629105272 -4397638425522 4397638270530 4397638420136 4397638438697 -4397628535959 2742406 4397628535958 -9310328 4397628587000 7711194 -7711193 4397637788275 -9310326 146 -389465023 386831526 -4397498136180 -130983110 -4397631220353 133084178 9 4397498030183 -4397631114377 4397631464528 -388932527 388932526 -2101061 2590942 -389422407 389422407 -2590943 4397638926403 -4397638926402 2933297 -8410 -2913921 2922330 7987 -7986 4397628539632 -4397628539632 -2877618 2885604 -2885607 2886030 -8409 8409 423 4397628295460 -4397628287051 4397631209383 -4398027362145 386831465 4397628629408 -4397631220351 -4398025757867 -389422406 389422406 -7706052 4397631220351 244177 -4397631464528 2631313 -530250 130930649 77903 4397628511129 -4397631220350 -4397631220352 4397631220352 4397638429617 4398018051881 4397629349261 -4397629119287 4397629363465 -4397628831171 -518268 4397629105265 -4397629105265 4397629115188 -4397629105264 4397628629809 7785505 -4397637134950 4397629115184 244181 4397629069427 -4397629105263 4397629105262 3969039 5331816 313 22336 -9318530 3969042 -2200619139439 23232 -13995 2200619154503 -2200619140508 2200619140513 -249 -2200619163496 2200619167557 -2200619144324 -13994 13996 2200619140509 -246 4061 -3815 4094 -3845 -24649 4060 -4060 -2200619248246 2200619248246 -248 246 10611919 -10611918 -10612164 242 -2200619163753 2200629775941 -2200629775941 2200619163757 4083 10608089 -10611919 10611920 -10611920 -1539 1539 2048 -2048 -515 -414976 -3839 -718844 1138176 -1138176 718844 -718845 3841 11027411 -513283 513280 -10611921 26 -4087 -2200619163511 -2200629775926 2200629775938 -10612200 10611773 -10611773 10612154 34 -10608370 10608370 -2200629775932 1642 2200619162098 10612190 -10612189 -2200619163672 2200619167502 10608358 -10608369 -2200619252166 2200619252157 -506376 11114747 -10608368 -506379 506378 -506378 506379 156 -155 -625754 621910 3826 11114744 -506382 506382 -506380 506380 -506381 -506377 506404 -31 31 10608305 -10612396 4062 -2200618661195 2200629775721 -11114523 11114745 -11235926 81254 -81253 121179 -121178 121176 -39907 11154622 -11154624 11154654 -33 -11154621 542462 -542463 11154621 11154619 -10612157 -502556 -546285 11154620 -11154655 11154618 -11154618 32 -2200629761278 2200614732334 3874289 -10612155 3818 10608336 -2200629860490 2200629860491 3819 10608337 -11154622 -11154623 10612156 -10612158 -542462 39906 502555 3980 -3978 3977 -156 -3822 3978 -506534 506534 -506532 -10608209 -506538 -506536 502554 -502552 506532 -3979 10612191 -10612190 3820 10612397 -10608316 -2200619167511 2200629775860 -10608202 -4073 4073 4229 10607741 -10607754 -712824 708850 -242 4216 -712668 708608 4253 -712861 4262 -4020 -2200619133383 2200619137373 -16 712859 -712613 -247 11321038 11321004 -11320756 11320792 -11320790 249 712862 -712869 250 -288223780708434847 -4397630481924 4397631371275 -4397631371276 4397631371276 -889351 4397630481925 4397630481926 -4397630481925 -889350 4397630481927 -4397630481926 4397630481928 -4397630481927 4397630481929 889347 -4397630481928 4397630481930 -4397630481929 4397630481931 -4397630481930 4397630481932 -4397630481931 4397630481933 889343 -4397630481932 4397630481934 -4397630481933 4397630481935 -4397630481934 4397630481936 -4397630481935 4397630481937 889339 -4397630481936 4397630481938 -4397630481937 288228178338916517 -2200618440702 -13940 2200629775495 -230 -11320623 712840 10607735 -11320575 -3709907 -8390683 23421170 -15029463 -2200614744500 2200606352780 23421183 -23421182 8391720 15029507 -2200629772676 2200629773278 -15031042 15031044 -452 -2200629752428 2200629766221 -2200629752227 2200629752426 2200629752226 200 -200 -11125003 11125202 -11125202 11125203 -11125204 11125204 -1535 1536 -5631 11130835 -203 -2200629775458 2200618650457 -11125201 -52013 -26 11177026 -11177026 -2200618598437 2200618598426 51796 -2200618650231 2200618454903 11320618 -2200629775521 2200629775907 -386 -11177071 11177506 2200629773816 473 -471 -2200629775390 2200618598366 11177494 -11177505 -2200618683019 2200618683033 -13 62757 10608212 -10608213 -506535 10607740 -10607718 -625910 119357 -62757 11177501 62754 -62756 62758 62759 -62732 11177441 36 -11114748 -10964 2200618661198 11114523 222 11154624 33 11154182 -11154181 11154623 -11154619 -439 -11114274 -2200618596959 2200618659716 -62758 11177032 22849 11154183 436 35 -11787695 11787224 -11177036 569292 -2200619252311 86062 2200629774462 -10608214 -712827 206292 506543 -569292 569284 -10608212 -569293 2200618596960 22850 11154653 11321040 -11321040 11320566 -10607740 471 -470 -11177035 -2200618683018 2200629860526 -473 435 -11177446 11177012 201 -11126739 11126739 -11126740 11126740 -4096 4097 -4095 11130852 -11133157 2303 -619007 11749843 -2200629775457 2200629775458 -11126536 11126738 -11176720 49729 -193792 144063 -2200618598957 2200629775521 386 -11176937 11176986 470 2200618598889 -11 -2200618683540 2200618745778 -62241 62238 -11114746 -62236 62239 -62212 11176921 -12500 12503 -2200618661198 2200629775943 11235704 -11154450 -11154654 -2200618659716 2200618597479 62237 -62237 -520 22330 437 -438 -11176985 568773 11114275 11176951 -435 472 -10608217 -2200619252310 2200629860055 -11176491 -144078 11320571 -11130835 -11130836 -2304 11133156 -11133156 11133140 -11130632 11130834 -11177448 14 15 -143350 143335 46361 -46361 -2200618598229 -11177665 11177714 -2200629773817 2200629773818 -472 2200618598147 -2200618682812 2200618745781 -62969 62966 -62964 62967 -62940 11177680 -16596 16599 2200618596751 62965 -208 728 520 -62965 23058 -11177680 -11177713 -2200618596749 2200619166251 10608214 2200629860054 -11177243 569499 -206292 712825 10607743 -2200629860526 2200618539485 -434 -11177220 11177219 -11133138 11133139 -11133139 -11133140 11133157 -616703 -11132937 11133138 -11133137 -43687 43433 -187392 143959 -2200618598853 -11177041 11177090 2200618598771 -2200618683436 -62345 62342 -62340 62340 -62343 62343 -62316 11177056 -18900 18903 -11154620 2200618597375 62341 -103 -416 -728 11176512 -62341 22434 -2200629761246 2200629761278 -15028944 -11177089 568877 10608211 -11176619 -143949 712824 506533 -2200629860054 11320570 434 -11176595 11176597 18 -219 199 17 -18 -2200629776112 2200629766220 2200629752227 653 -652 198 -199 -2200629772629 2200614743167 15029463 -2200618440564 2200618440564 -2200618454903 -415 -48 -11320577 2200629775926 12 -11320803 11320756 -381 415 10608213 10608179 -2200629860491 -10608181 -546441 -11320792 11320759 -11320761 166141 39909 -569499 569500 -62967 -2200618596751 2200618596959 -39908 39908 11114713 143291 -143289 143288 -62238 568772 416 -143809 712585 -206048 143289 -62342 -412 62760 -11114745 -62760 -143290 11320793 -10608215 10608181 -11321005 712845 10608193 -2200619167646 2200619167658 10608202 -11177494 -712837 712837 11177046 -11125250 -195081 143532 37 569255 195328 -51750 -143578 712870 -569322 -2200618568081 2200618568065 -51761 -517496 236 11125474 -11125472 11125439 -11125711 -51796 -2200618575278 2200618627313 -239 244 -2200615029682 2200615029682 -2200615029681 2200615029677 -11125207 -51758 52000 
Potential of Offsets elements: 28.0082 28.0082 219.008 28.0082 28.0082 1160.44 1364.01 28.0082 1666.13 28.0082 28.0082 28.0082 28.0082 28.0082 28.0082 28.0082 28.0082 28.0082 28.0082 28.0082 28.0082 28.0082 28.0082 28.0082 28.0082 28.0082 28.0082 28.0082 28.0082 28.0082 28.0082 28.0082 28.0082 28.0082 28.0082 35.0082 28.0082 28.0082 28.0082 28.0082 28.0082 28.0082 28.0082 650.008 28.0082 28.0082 28.0082 28.0082 28.0082 28.0082 28.0082 28.0082 28.0082 28.0082 28.0082 28.0082 28.0082 28.0082 28.0082 28.0082 28.0082 28.0082 28.0082 28.0082 28.0082 144.008 28.0082 28.0082 28.0082 28.0082 28.0082 28.0082 28.0082 28.0082 28.0082 28.0082 28.0082 28.0082 28.0082 28.0082 28.0082 28.0082 28.0082 28.0082 28.0082 28.0082 28.0082 28.0082 28.0082 28.0082 28.0082 28.0082 28.0082 28.0082 28.0082 28.0082 28.0082 1253.01 308.008 28.0082 28.0082 719.008 434.008 28.0082 28.0082 28.0082 28.0082 28.0082 28.0082 28.0082 28.0082 28.0082 28.0082 28.0082 28.0082 28.0082 28.0082 28.0082 28.0082 28.0082 28.0082 28.0082 28.0082 28.0082 28.0082 28.0082 28.0082 28.0082 28.0082 28.0082 28.0082 28.0082 28.0082 28.0082 28.0082 28.0082 28.0082 28.0082 28.0082 28.0082 28.0082 28.0082 36.0082 34.0082 32.0082 32.0082 28.0082 201.008 28.0082 29.0082 28.0082 28.0082 28.0082 28.0082 28.0082 28.0082 28.0082 222.008 28.0082 28.0082 28.0082 28.0082 32.0082 28.0082 28.0082 320.008 96.0082 28.0082 28.0082 28.0082 28.0082 28.0082 28.0082 28.0082 28.0082 28.0082 28.0082 28.0082 28.0082 28.0082 28.0082 28.0082 28.0082 28.0082 28.0082 28.0082 28.0082 28.0082 28.0082 28.0082 28.0082 28.0082 28.0082 28.0082 28.0082 28.0082 28.0082 28.0082 28.0082 28.0082 28.0082 28.0082 28.0082 28.0082 28.0082 28.0082 28.0082 28.0082 28.0082 28.0082 28.0082 28.0082 28.0082 28.0082 28.0082 28.0082 28.0082 28.0082 28.0082 28.0082 28.0082 28.0082 28.0082 28.0082 28.0082 28.0082 28.0082 28.0082 28.0082 28.0082 28.0082 28.0082 28.0082 28.0082 28.0082 34.0082 28.0082 1099.01 28.0082 28.0082 28.0082 28.0082 28.0082 28.0082 28.0082 28.0082 28.0082 28.0082 28.0082 28.0082 28.0082 169.008 28.0082 28.0082 28.0082 28.0082 28.0082 28.0082 28.0082 28.0082 28.0082 28.0082 28.0082 28.0082 28.0082 28.0082 28.0082 28.0082 28.0082 28.0082 28.0082 28.0082 28.0082 28.0082 28.0082 28.0082 28.0082 28.0082 28.0082 28.0082 28.0082 28.0082 28.0082 28.0082 28.0082 28.0082 28.0082 28.0082 28.0082 28.0082 28.0082 28.0082 28.0082 28.0082 28.0082 28.0082 28.0082 28.0082 28.0082 28.0082 28.0082 28.0082 28.0082 28.0082 28.0082 28.0082 28.0082 28.0082 28.0082 28.0082 28.0082 28.0082 28.0082 28.0082 28.0082 28.0082 28.0082 28.0082 28.0082 28.0082 28.0082 28.0082 28.0082 28.0082 28.0082 28.0082 28.0082 28.0082 28.0082 28.0082 28.0082 28.0082 28.0082 28.0082 28.0082 28.0082 28.0082 28.0082 28.0082 28.0082 28.0082 28.0082 28.0082 28.0082 28.0082 40.0082 28.0082 28.0082 28.0082 28.0082 28.0082 28.0082 28.0082 28.0082 28.0082 28.0082 28.0082 28.0082 28.0082 28.0082 28.0082 28.0082 28.0082 28.0082 28.0082 28.0082 28.0082 28.0082 28.0082 28.0082 28.0082 28.0082 28.0082 28.0082 28.0082 28.0082 28.0082 28.0082 28.0082 28.0082 28.0082 28.0082 28.0082 28.0082 28.0082 28.0082 28.0082 28.0082 120.008 28.0082 28.0082 28.0082 28.0082 28.0082 28.0082 28.0082 28.0082 28.0082 28.0082 28.0082 28.0082 46.0082 28.0082 28.0082 28.0082 28.0082 28.0082 28.0082 28.0082 28.0082 28.0082 28.0082 28.0082 28.0082 28.0082 454.008 28.0082 28.0082 28.0082 28.0082 28.0082 28.0082 28.0082 28.0082 28.0082 28.0082 28.0082 28.0082 28.0082 28.0082 28.0082 28.0082 28.0082 28.0082 28.0082 28.0082 28.0082 28.0082 28.0082 28.0082 28.0082 28.0082 28.0082 28.0082 28.0082 28.0082 28.0082 28.0082 28.0082 28.0082 28.0082 28.0082 28.0082 28.0082 28.0082 28.0082 28.0082 28.0082 28.0082 28.0082 28.0082 35.0082 34.0082 96.0082 60.0082 28.0082 28.0082 28.0082 28.0082 28.0082 28.0082 28.0082 28.0082 28.0082 28.0082 28.0082 28.0082 28.0082 28.0082 28.0082 28.0082 28.0082 28.0082 28.0082 28.0082 28.0082 28.0082 28.0082 28.0082 28.0082 28.0082 28.0082 28.0082 28.0082 28.0082 28.0082 28.0082 28.0082 28.0082 28.0082 28.0082 28.0082 1282.01 28.0082 28.0082 28.0082 28.0082 28.0082 28.0082 28.0082 28.0082 28.0082 28.0082 28.0082 28.0082 28.0082 28.0082 28.0082 28.0082 28.0082 28.0082 28.0082 28.0082 28.0082 28.0082 28.0082 28.0082 28.0082 28.0082 28.0082 28.0082 28.0082 28.0082 28.0082 28.0082 28.0082 28.0082 28.0082 28.0082 28.0082 28.0082 28.0082 28.0082 28.0082 28.0082 28.0082 28.0082 28.0082 28.0082 28.0082 28.0082 28.0082 28.0082 28.0082 28.0082 28.0082 28.0082 28.0082 28.0082 28.0082 28.0082 28.0082 28.0082 42.0082 28.0082 28.0082 28.0082 28.0082 28.0082 28.0082 28.0082 48.0082 149.008 172.008 172.008 196.008 28.0082 28.0082 28.0082 28.0082 28.0082 28.0082 28.0082 28.0082 28.0082 28.0082 28.0082 28.0082 28.0082 160.008 28.0082 28.0082 28.0082 28.0082 28.0082 32.0082 28.0082 28.0082 28.0082 28.0082 28.0082 28.0082 28.0082 28.0082 28.0082 28.0082 28.0082 28.0082 28.0082 28.0082 28.0082 28.0082 28.0082 28.0082 28.0082 28.0082 28.0082 28.0082 28.0082 28.0082 28.0082 28.0082 28.0082 28.0082 28.0082 28.0082 28.0082 28.0082 28.0082 28.0082 28.0082 28.0082 28.0082 28.0082 28.0082 28.0082 28.0082 28.0082 28.0082 28.0082 28.0082 28.0082 28.0082 28.0082 28.0082 28.0082 28.0082 28.0082 28.0082 28.0082 28.0082 28.0082 28.0082 28.0082 28.0082 28.0082 28.0082 28.0082 28.0082 28.0082 126.008 108.008 28.0082 31.0082 28.0082 28.0082 28.0082 28.0082 28.0082 28.0082 28.0082 28.0082 28.0082 28.0082 28.0082 262.008 53.0082 568.008 28.0082 28.0082 28.0082 28.0082 28.0082 28.0082 28.0082 28.0082 28.0082 64.0082 28.0082 28.0082 28.0082 28.0082 28.0082 36.0082 46.0082 44.0082 98.0082 100.008 28.0082 28.0082 28.0082 71.0082 28.0082 28.0082 28.0082 28.0082 28.0082 28.0082 28.0082 28.0082 28.0082 28.0082 28.0082 28.0082 28.0082 28.0082 28.0082 28.0082 28.0082 28.0082 28.0082 28.0082 172.008 172.008 28.0082 28.0082 28.0082 108.008 172.008 138.008 28.0082 172.008 172.008 316.008 172.008 28.0082 28.0082 28.0082 28.0082 28.0082 28.0082 28.0082 28.0082 28.0082 28.0082 28.0082 28.0082 28.0082 28.0082 28.0082 28.0082 28.0082 28.0082 78.0082 172.008 112.008 112.008 130.008 124.008 43.0082 40.0082 53.0082 118.008 73.0082 37.0082 37.0082 37.0082 68.0082 28.0082 28.0082 100.008 64.0082 49.0082 28.0082 28.0082 28.0082 28.0082 28.0082 28.0082 28.0082 28.0082 28.0082 28.0082 28.0082 28.0082 28.0082 28.0082 28.0082 28.0082 28.0082 28.0082 28.0082 28.0082 28.0082 28.0082 28.0082 28.0082 28.0082 28.0082 28.0082 28.0082 28.0082 28.0082 28.0082 28.0082 28.0082 28.0082 28.0082 28.0082 198.008 28.0082 28.0082 28.0082 28.0082 28.0082 28.0082 28.0082 28.0082 28.0082 28.0082 28.0082 28.0082 28.0082 84.0082 28.0082 28.0082 28.0082 28.0082 28.0082 28.0082 28.0082 28.0082 28.0082 28.0082 28.0082 28.0082 28.0082 28.0082 28.0082 28.0082 28.0082 28.0082 28.0082 28.0082 287.008 28.0082 28.0082 28.0082 28.0082 28.0082 28.0082 28.0082 28.0082 28.0082 28.0082 28.0082 28.0082 28.0082 28.0082 28.0082 28.0082 28.0082 28.0082 28.0082 28.0082 28.0082 28.0082 28.0082 28.0082 28.0082 28.0082 28.0082 28.0082 28.0082 28.0082 28.0082 28.0082 28.0082 28.0082 28.0082 34.0082 28.0082 28.0082 28.0082 52.0082 102.008 81.0082 136.008 46.0082 37.0082 55.0082 28.0082 28.0082 28.0082 28.0082 52.0082 136.008 280.008 280.008 100.008 193.008 253.008 176.008 70.0082 64.0082 64.0082 37.0082 37.0082 37.0082 40.0082 31.0082 28.0082 28.0082 28.0082 28.0082 28.0082 28.0082 28.0082 28.0082 28.0082 28.0082 28.0082 28.0082 28.0082 28.0082 28.0082 28.0082 28.0082 28.0082 28.0082 28.0082 28.0082 28.0082 28.0082 28.0082 28.0082 28.0082 79.0082 28.0082 28.0082 28.0082 28.0082 28.0082 28.0082 28.0082 28.0082 28.0082 28.0082 28.0082 28.0082 28.0082 28.0082 28.0082 28.0082 28.0082 28.0082 28.0082 28.0082 28.0082 28.0082 28.0082 28.0082 28.0082 28.0082 28.0082 28.0082 28.0082 28.0082 28.0082 28.0082 28.0082 28.0082 28.0082 28.0082 32.0082 28.0082 28.0082 130.008 28.0082 28.0082 148.008 28.0082 29.0082 28.0082 28.0082 28.0082 28.0082 28.0082 28.0082 28.0082 28.0082 28.0082 28.0082 28.0082 28.0082 28.0082 28.0082 28.0082 28.0082 28.0082 28.0082 28.0082 28.0082 28.0082 28.0082 28.0082 28.0082 28.0082 29.0082 28.0082 28.0082 28.0082 28.0082 28.0082 28.0082 28.0082 28.0082 28.0082 28.0082 28.0082 28.0082 28.0082 28.0082 28.0082 28.0082 28.0082 28.0082 28.0082 28.0082 28.0082 28.0082 28.0082 28.0082 28.0082 28.0082 28.0082 28.0082 28.0082 28.0082 28.0082 28.0082 28.0082 28.0082 28.0082 28.0082 28.0082 28.0082 28.0082 28.0082 28.0082 28.0082 28.0082 28.0082 28.0082 28.0082 28.0082 28.0082 28.0082 28.0082 28.0082 28.0082 28.0082 28.0082 28.0082 28.0082 28.0082 28.0082 30.0082 28.0082 28.0082 28.0082 28.0082 28.0082 28.0082 28.0082 28.0082 28.0082 28.0082 28.0082 28.0082 28.0082 28.0082 28.0082 28.0082 28.0082 28.0082 28.0082 50.0082 28.0082 30.0082 40.0082 28.0082 28.0082 28.0082 28.0082 28.0082 28.0082 62.0082 29.0082 28.0082 28.0082 31.0082 28.0082 28.0082 28.0082 28.0082 28.0082 28.0082 28.0082 28.0082 28.0082 28.0082 28.0082 28.0082 28.0082 28.0082 28.0082 28.0082 28.0082 28.0082 28.0082 28.0082 28.0082 28.0082 28.0082 28.0082 28.0082 28.0082 28.0082 28.0082 28.0082 28.0082 28.0082 151.008 257.008 28.0082 28.0082 37.0082 28.0082 130.008 28.0082 28.0082 28.0082 28.0082 28.0082 28.0082 28.0082 28.0082 28.0082 28.0082 28.0082 28.0082 28.0082 28.0082 28.0082 28.0082 28.0082 28.0082 28.0082 28.0082 28.0082 28.0082 28.0082 28.0082 28.0082 28.0082 28.0082 28.0082 28.0082 28.0082 28.0082 28.0082 28.0082 28.0082 28.0082 28.0082 28.0082 28.0082 28.0082 28.0082 28.0082 28.0082 28.0082 28.0082 28.0082 28.0082 28.0082 40.0082 28.0082 28.0082 28.0082 28.0082 28.0082 28.0082 28.0082 28.0082 28.0082 28.0082 28.0082 28.0082 28.0082 492.008 28.0082 28.0082 28.0082 28.0082 28.0082 28.0082 28.0082 28.0082 36.0082 28.0082 28.0082 28.0082 28.0082 28.0082 28.0082 28.0082 28.0082 28.0082 28.0082 28.0082 28.0082 28.0082 28.0082 28.0082 28.0082 28.0082 28.0082 28.0082 28.0082 28.0082 28.0082 28.0082 28.0082 28.0082 28.0082 28.0082 28.0082 28.0082 28.0082 28.0082 28.0082 28.0082 28.0082 28.0082 28.0082 28.0082 28.0082 28.0082 28.0082 28.0082 28.0082 28.0082 28.0082 28.0082 28.0082 28.0082 28.0082 28.0082 28.0082 28.0082 28.0082 28.0082 28.0082 28.0082 28.0082 32.0082 28.0082 28.0082 28.0082 28.0082 28.0082 28.0082 28.0082 28.0082 28.0082 28.0082 28.0082 28.0082 28.0082 28.0082 28.0082 28.0082 28.0082 28.0082 28.0082 28.0082 28.0082 28.0082 28.0082 28.0082 28.0082 28.0082 28.0082 28.0082 28.0082 28.0082 28.0082 28.0082 28.0082 28.0082 28.0082 34.0082 28.0082 28.0082 28.0082 34.0082 28.0082 28.0082 28.0082 28.0082 28.0082 28.0082 28.0082 28.0082 28.0082 28.0082 28.0082 28.0082 79.0082 28.0082 28.0082 28.0082 31.0082 28.0082 28.0082 28.0082 28.0082 28.0082 28.0082 28.0082 28.0082 28.0082 28.0082 28.0082 28.0082 28.0082 28.0082 28.0082 28.0082 28.0082 28.0082 28.0082 28.0082 28.0082 28.0082 28.0082 84.0082 360.008 28.0082 28.0082 28.0082 28.0082 28.0082 28.0082 28.0082 28.0082 473.008 28.0082 28.0082 28.0082 28.0082 28.0082 28.0082 28.0082 28.0082 28.0082 28.0082 28.0082 28.0082 28.0082 28.0082 28.0082 28.0082 28.0082 28.0082 28.0082 28.0082 28.0082 28.0082 28.0082 28.0082 28.0082 28.0082 28.0082 28.0082 28.0082 28.0082 28.0082 28.0082 28.0082 28.0082 28.0082 28.0082 28.0082 117.008 28.0082 28.0082 28.0082 28.0082 28.0082 28.0082 28.0082 28.0082 30.0082 28.0082 28.0082 28.0082 28.0082 28.0082 28.0082 28.0082 28.0082 28.0082 28.0082 28.0082 28.0082 206.008 28.0082 28.0082 28.0082 28.0082 28.0082 28.0082 28.0082 28.0082 28.0082 28.0082 28.0082 28.0082 28.0082 28.0082 28.0082 28.0082 28.0082 28.0082 50.0082 113.008 28.0082 30.0082 28.0082 47.0082 44.0082 28.0082 28.0082 28.0082 28.0082 31.0082 28.0082 28.0082 28.0082 28.0082 28.0082 28.0082 28.0082 28.0082 28.0082 28.0082 28.0082 28.0082 28.0082 28.0082 28.0082 28.0082 28.0082 28.0082 28.0082 28.0082 28.0082 28.0082 28.0082 28.0082 28.0082 28.0082 28.0082 28.0082 28.0082 28.0082 28.0082 28.0082 86.0082 46.0082 28.0082 45.0082 275.008 28.0082 28.0082 28.0082 60.0082 28.0082 28.0082 28.0082 28.0082 28.0082 28.0082 28.0082 28.0082 28.0082 28.0082 28.0082 28.0082 28.0082 28.0082 28.0082 28.0082 28.0082 28.0082 28.0082 28.0082 28.0082 28.0082 28.0082 28.0082 28.0082 28.0082 28.0082 28.0082 28.0082 28.0082 28.0082 28.0082 28.0082 28.0082 42.0082 30.0082 28.0082 28.0082 28.0082 28.0082 28.0082 28.0082 28.0082 28.0082 28.0082 28.0082 28.0082 28.0082 28.0082 28.0082 28.0082 36.0082 28.0082 28.0082 28.0082 28.0082 28.0082 28.0082 28.0082 28.0082 28.0082 28.0082 28.0082 28.0082 28.0082 28.0082 28.0082 28.0082 28.0082 28.0082 28.0082 28.0082 191.008 28.0082 28.0082 721.008 42.0082 28.0082 28.0082 28.0082 28.0082 28.0082 32.0082 28.0082 28.0082 28.0082 28.0082 28.0082 28.0082 28.0082 28.0082 35.0082 28.0082 28.0082 116.008 28.0082 28.0082 28.0082 28.0082 28.0082 28.0082 48.0082 28.0082 28.0082 28.0082 28.0082 28.0082 28.0082 28.0082 28.0082 28.0082 28.0082 28.0082 28.0082 28.0082 175.008 320.008 28.0082 28.0082 28.0082 28.0082 28.0082 28.0082 28.0082 28.0082 28.0082 28.0082 28.0082 28.0082 28.0082 156.008 28.0082 28.0082 28.0082 28.0082 28.0082 28.0082 28.0082 28.0082 28.0082 28.0082 28.0082 28.0082 28.0082 28.0082 28.0082 28.0082 28.0082 28.0082 36.0082 28.0082 28.0082 28.0082 28.0082 28.0082 28.0082 28.0082 28.0082 28.0082 28.0082 146.008 28.0082 28.0082 28.0082 28.0082 28.0082 32.0082 28.0082 28.0082 68.0082 28.0082 28.0082 28.0082 28.0082 28.0082 28.0082 28.0082 
rewards of Offsets elements: 0 0 191 0 0 1160 1336 0 1666 0 0 0 0 0 0 0 0 0 0 0 0 0 0 0 0 0 0 0 0 0 0 0 0 0 0 7 0 0 0 0 0 0 0 622 0 0 0 0 0 0 0 0 0 0 0 0 0 0 0 0 0 0 0 0 0 116 0 0 0 0 0 0 0 0 0 0 0 0 0 0 0 0 0 0 0 0 0 0 0 0 0 0 0 0 0 0 0 1225 280 0 0 691 406 0 0 0 0 0 0 0 0 0 0 0 0 0 0 0 0 0 0 0 0 0 0 0 0 0 0 0 0 0 0 0 0 0 0 0 0 0 0 0 8 6 4 4 0 173 0 1 0 0 0 0 0 0 0 194 0 0 0 0 4 0 0 292 68 0 0 0 0 0 0 0 0 0 0 0 0 0 0 0 0 0 0 0 0 0 0 0 0 0 0 0 0 0 0 0 0 0 0 0 0 0 0 0 0 0 0 0 0 0 0 0 0 0 0 0 0 0 0 0 0 0 0 0 0 0 0 0 0 0 0 0 0 6 0 1071 0 0 0 0 0 0 0 0 0 0 0 0 0 141 0 0 0 0 0 0 0 0 0 0 0 0 0 0 0 0 0 0 0 0 0 0 0 0 0 0 0 0 0 0 0 0 0 0 0 0 0 0 0 0 0 0 0 0 0 0 0 0 0 0 0 0 0 0 0 0 0 0 0 0 0 0 0 0 0 0 0 0 0 0 0 0 0 0 0 0 0 0 0 0 0 0 0 0 0 0 0 0 0 0 0 0 0 12 0 0 0 0 0 0 0 0 0 0 0 0 0 0 0 0 0 0 0 0 0 0 0 0 0 0 0 0 0 0 0 0 0 0 0 0 0 0 0 0 0 0 92 0 0 0 0 0 0 0 0 0 0 0 0 18 0 0 0 0 0 0 0 0 0 0 0 0 0 426 0 0 0 0 0 0 0 0 0 0 0 0 0 0 0 0 0 0 0 0 0 0 0 0 0 0 0 0 0 0 0 0 0 0 0 0 0 0 0 0 0 0 0 0 0 7 6 68 32 0 0 0 0 0 0 0 0 0 0 0 0 0 0 0 0 0 0 0 0 0 0 0 0 0 0 0 0 0 0 0 0 0 0 0 0 0 1254 0 0 0 0 0 0 0 0 0 0 0 0 0 0 0 0 0 0 0 0 0 0 0 0 0 0 0 0 0 0 0 0 0 0 0 0 0 0 0 0 0 0 0 0 0 0 0 0 0 0 0 0 0 0 0 0 0 0 0 0 14 0 0 0 0 0 0 0 20 121 144 144 168 0 0 0 0 0 0 0 0 0 0 0 0 0 132 0 0 0 0 0 4 0 0 0 0 0 0 0 0 0 0 0 0 0 0 0 0 0 0 0 0 0 0 0 0 0 0 0 0 0 0 0 0 0 0 0 0 0 0 0 0 0 0 0 0 0 0 0 0 0 0 0 0 0 0 0 0 0 0 0 0 0 0 0 0 98 80 0 3 0 0 0 0 0 0 0 0 0 0 0 234 25 540 0 0 0 0 0 0 0 0 0 36 0 0 0 0 0 8 18 16 70 72 0 0 0 43 0 0 0 0 0 0 0 0 0 0 0 0 0 0 0 0 0 0 0 0 144 144 0 0 0 80 144 110 0 144 144 288 144 0 0 0 0 0 0 0 0 0 0 0 0 0 0 0 0 0 0 50 144 84 84 102 96 15 12 25 90 45 9 9 9 40 0 0 72 36 21 0 0 0 0 0 0 0 0 0 0 0 0 0 0 0 0 0 0 0 0 0 0 0 0 0 0 0 0 0 0 0 0 0 0 0 0 170 0 0 0 0 0 0 0 0 0 0 0 0 0 56 0 0 0 0 0 0 0 0 0 0 0 0 0 0 0 0 0 0 0 0 259 0 0 0 0 0 0 0 0 0 0 0 0 0 0 0 0 0 0 0 0 0 0 0 0 0 0 0 0 0 0 0 0 0 0 0 6 0 0 0 24 74 53 108 18 9 27 0 0 0 0 24 108 252 252 72 165 225 148 42 36 36 9 9 9 12 3 0 0 0 0 0 0 0 0 0 0 0 0 0 0 0 0 0 0 0 0 0 0 0 0 0 0 51 0 0 0 0 0 0 0 0 0 0 0 0 0 0 0 0 0 0 0 0 0 0 0 0 0 0 0 0 0 0 0 0 0 0 0 0 4 0 0 102 0 0 120 0 1 0 0 0 0 0 0 0 0 0 0 0 0 0 0 0 0 0 0 0 0 0 0 0 0 0 1 0 0 0 0 0 0 0 0 0 0 0 0 0 0 0 0 0 0 0 0 0 0 0 0 0 0 0 0 0 0 0 0 0 0 0 0 0 0 0 0 0 0 0 0 0 0 0 0 0 0 0 0 0 0 0 0 0 0 2 0 0 0 0 0 0 0 0 0 0 0 0 0 0 0 0 0 0 0 22 0 2 12 0 0 0 0 0 0 34 1 0 0 3 0 0 0 0 0 0 0 0 0 0 0 0 0 0 0 0 0 0 0 0 0 0 0 0 0 0 0 0 0 0 0 123 229 0 0 9 0 102 0 0 0 0 0 0 0 0 0 0 0 0 0 0 0 0 0 0 0 0 0 0 0 0 0 0 0 0 0 0 0 0 0 0 0 0 0 0 0 0 0 0 0 0 0 0 0 12 0 0 0 0 0 0 0 0 0 0 0 0 0 464 0 0 0 0 0 0 0 0 8 0 0 0 0 0 0 0 0 0 0 0 0 0 0 0 0 0 0 0 0 0 0 0 0 0 0 0 0 0 0 0 0 0 0 0 0 0 0 0 0 0 0 0 0 0 0 0 0 0 0 0 0 0 0 0 0 4 0 0 0 0 0 0 0 0 0 0 0 0 0 0 0 0 0 0 0 0 0 0 0 0 0 0 0 0 0 0 0 0 0 0 0 6 0 0 0 6 0 0 0 0 0 0 0 0 0 0 0 0 51 0 0 0 3 0 0 0 0 0 0 0 0 0 0 0 0 0 0 0 0 0 0 0 0 0 0 0 56 332 0 0 0 0 0 0 0 0 445 0 0 0 0 0 0 0 0 0 0 0 0 0 0 0 0 0 0 0 0 0 0 0 0 0 0 0 0 0 0 0 0 0 0 0 0 0 89 0 0 0 0 0 0 0 0 2 0 0 0 0 0 0 0 0 0 0 0 0 178 0 0 0 0 0 0 0 0 0 0 0 0 0 0 0 0 0 0 22 85 0 2 0 19 16 0 0 0 0 3 0 0 0 0 0 0 0 0 0 0 0 0 0 0 0 0 0 0 0 0 0 0 0 0 0 0 0 0 0 0 0 0 58 18 0 17 247 0 0 0 32 0 0 0 0 0 0 0 0 0 0 0 0 0 0 0 0 0 0 0 0 0 0 0 0 0 0 0 0 0 0 0 0 0 0 14 2 0 0 0 0 0 0 0 0 0 0 0 0 0 0 0 8 0 0 0 0 0 0 0 0 0 0 0 0 0 0 0 0 0 0 0 0 163 0 0 693 14 0 0 0 0 0 4 0 0 0 0 0 0 0 0 7 0 0 88 0 0 0 0 0 0 20 0 0 0 0 0 0 0 0 0 0 0 0 0 147 292 0 0 0 0 0 0 0 0 0 0 0 0 0 128 0 0 0 0 0 0 0 0 0 0 0 0 0 0 0 0 0 0 8 0 0 0 0 0 0 0 0 0 0 118 0 0 0 0 0 4 0 0 40 0 0 0 0 0 0 0 Printing Sanity3
offset_index value1667
offset list size1667
reward size1667
potential size1667
-----------------------------------------------------------------------------------------------------------------------------------------------------------------------------------------------------

DRAM Statistics
 CHANNEL 0
 RQ ROW_BUFFER_HIT:      56339  ROW_BUFFER_MISS:     245644
 DBUS_CONGESTED:         72
 WQ ROW_BUFFER_HIT:      30669  ROW_BUFFER_MISS:     185575  FULL:          0

 AVG_CONGESTED_CYCLE: 4
 All warmup complete: 2
Channel 0 Bank busy for read cycles: 0
Channel 0 Bank busy for write cycles: 0
Channel 0
Rank 0
0banks busy for read cycles: 382098611
0banks busy for write cycles: 126333
1banks busy for read cycles: 29158495
1banks busy for write cycles: 18151079
2banks busy for read cycles: 3337244
2banks busy for write cycles: 4112564
3banks busy for read cycles: 388740
3banks busy for write cycles: 1383446
4banks busy for read cycles: 200744
4banks busy for write cycles: 650057
5banks busy for read cycles: 77341
5banks busy for write cycles: 354041
6banks busy for read cycles: 52622
6banks busy for write cycles: 206769
7banks busy for read cycles: 43203
7banks busy for write cycles: 178636
8banks busy for read cycles: 109911
8banks busy for write cycles: 276646

CPU 0 Branch Prediction Accuracy: 99.7946% MPKI: 0.361505 Average ROB Occupancy at Mispredict: 44.1382
Branch types
NOT_BRANCH: 164798107 82.3991%
BRANCH_DIRECT_JUMP: 1714565 0.857282%
BRANCH_INDIRECT: 9411853 4.70593%
BRANCH_CONDITIONAL: 17949372 8.97469%
BRANCH_DIRECT_CALL: 2431594 1.2158%
BRANCH_INDIRECT_CALL: 630486 0.315243%
BRANCH_RETURN: 3064162 1.53208%
BRANCH_OTHER: 0 0%

DRAM PAGES: 1048576
Allocated PAGES: 5849
