
*** ChampSim Multicore Out-of-Order Simulator ***

Warmup Instructions: 50000000
Simulation Instructions: 200000000
Number of CPUs: 1
LLC sets: 2048
LLC ways: 16
Off-chip DRAM Size: 4096 MB Channels: 1 Width: 64-bit Data Rate: 6400 MT/s
CPU 0 runs traces/spec2k17/srv_10.champsimtrace.xz
.xz
BTB has LRU replacement policy
ITLB has LRU replacement policy
DTLB has LRU replacement policy
STLB has LRU replacement policy
L1I has LRU replacement policy
L1D has LRU replacement policy
Initialize SRRIP state for L2C
Initialize DRRIP state for LLC
Heartbeat CPU 0 instructions: 10000000 cycles: 2780671 heartbeat IPC: 3.59625 cumulative IPC: 3.59625 (Simulation time: 0 hr 0 min 35 sec) 
Heartbeat CPU 0 instructions: 20000002 cycles: 5553822 heartbeat IPC: 3.60601 cumulative IPC: 3.60112 (Simulation time: 0 hr 1 min 12 sec) 
Heartbeat CPU 0 instructions: 30000002 cycles: 8326928 heartbeat IPC: 3.60606 cumulative IPC: 3.60277 (Simulation time: 0 hr 1 min 48 sec) 
*** Reached end of trace for Core: 0 Repeating trace: traces/spec2k17/srv_10.champsimtrace.xz
Heartbeat CPU 0 instructions: 40000001 cycles: 11101744 heartbeat IPC: 3.60384 cumulative IPC: 3.60304 (Simulation time: 0 hr 2 min 22 sec) 
Heartbeat CPU 0 instructions: 50000002 cycles: 13873776 heartbeat IPC: 3.60746 cumulative IPC: 3.60392 (Simulation time: 0 hr 2 min 58 sec) 

Warmup complete CPU 0 instructions: 50000002 cycles: 13873776 (Simulation time: 0 hr 2 min 58 sec) 

Offsets elements: 
Potential of Offsets elements: 
rewards of Offsets elements: 
Printing Sanity1
offset list size2268
Offsets elements: 
Potential of Offsets elements: 
rewards of Offsets elements: 0 0 0 0 0 757 0 0 0 0 0 0 0 0 0 0 0 0 0 0 0 0 0 0 0 0 0 0 0 14 28 0 0 0 0 0 0 0 1540 0 0 0 0 0 0 0 495 0 0 0 0 0 0 0 0 0 0 0 0 0 0 0 0 0 0 0 0 0 0 0 0 0 0 0 0 0 0 0 0 0 0 0 0 0 0 0 0 0 0 0 0 0 0 0 0 0 0 0 0 0 1932 0 156 1008 0 0 0 0 0 0 0 0 0 0 0 0 0 0 0 0 0 0 0 0 0 0 0 0 0 0 0 0 0 0 0 0 0 0 0 0 0 0 0 0 0 0 0 0 0 0 0 0 0 0 0 0 0 0 0 0 0 0 0 0 0 0 0 0 0 56 0 0 0 0 55 0 0 0 0 0 0 0 0 0 0 0 0 0 0 0 0 0 0 0 0 67 744 0 0 0 0 0 0 0 0 0 0 0 0 0 0 0 0 382 0 0 0 0 0 0 0 0 0 0 0 0 0 741 0 0 0 0 1536 0 0 0 0 0 0 0 0 0 0 0 0 0 0 0 0 0 0 0 85 0 0 168 0 0 0 0 0 0 0 0 0 0 0 0 0 0 0 0 0 0 0 241 0 0 0 0 0 0 0 0 0 0 0 0 0 0 0 0 0 0 0 0 0 0 0 0 0 0 0 0 0 0 0 0 0 0 2589 317 0 0 0 634 1445 0 0 0 0 0 0 0 0 0 0 354 342 153 0 0 0 0 0 0 0 0 0 6 0 0 0 5 0 14 23 0 0 3 0 0 0 0 0 0 0 0 0 0 0 0 0 0 0 0 0 0 0 0 0 0 0 0 0 0 0 0 0 0 0 0 44 45 0 0 0 0 0 0 0 0 4 0 0 0 0 0 0 0 0 0 0 0 0 0 0 0 0 0 0 0 0 0 0 0 0 0 0 0 0 0 0 0 0 0 0 0 0 0 0 0 0 0 0 0 0 0 0 0 0 0 0 0 0 0 0 0 0 0 0 0 0 0 0 0 0 0 0 0 0 0 0 0 0 0 0 0 0 0 0 0 3 0 0 0 0 0 0 0 0 0 0 0 0 0 0 0 0 0 0 0 0 0 0 0 0 0 0 0 0 48 0 0 0 0 0 0 0 0 0 0 0 0 0 0 0 0 0 0 0 0 0 0 0 0 0 0 0 0 0 0 0 0 0 0 0 0 0 0 0 0 0 0 0 0 0 0 0 0 0 0 0 0 0 0 0 144 18 0 0 0 0 0 0 0 0 0 0 0 0 0 0 0 0 0 0 0 0 0 0 0 0 0 0 0 0 0 0 0 0 0 0 0 0 0 0 0 0 0 0 0 0 0 0 0 0 0 0 432 0 0 0 0 0 0 0 0 0 0 0 0 0 0 0 0 0 0 0 0 0 324 0 0 0 0 0 0 0 0 0 0 0 0 0 0 80 0 0 0 0 0 0 0 0 0 0 0 0 496 0 0 36 0 0 187 0 0 0 0 0 0 0 0 0 0 0 0 0 0 0 0 0 0 0 0 0 0 0 0 0 0 0 0 0 0 0 0 0 0 0 0 0 0 0 0 0 0 0 0 0 0 0 0 0 0 0 0 0 0 0 0 0 0 0 0 0 0 0 0 0 0 0 0 0 0 0 0 0 0 0 0 0 0 0 0 0 0 0 0 0 0 0 0 0 0 0 0 0 0 0 0 0 0 0 0 144 144 121 0 0 0 0 0 109 0 0 0 0 0 0 0 0 0 0 0 0 0 0 0 0 0 0 0 0 0 0 0 0 0 0 0 0 0 0 0 0 0 0 0 0 72 0 0 0 0 43 0 0 51 0 0 0 0 0 0 0 0 0 0 0 0 0 0 0 0 0 81 0 0 0 0 0 0 0 0 0 0 0 0 0 0 0 0 0 0 0 0 0 0 0 0 0 0 0 0 0 0 0 0 0 0 0 0 0 0 4 0 0 0 0 0 0 0 0 10 4 0 0 0 0 0 0 0 0 0 0 0 0 0 0 0 0 0 0 0 0 0 0 0 0 0 0 0 0 0 0 0 0 0 0 0 0 0 0 0 0 0 0 0 0 0 0 0 0 0 0 0 0 0 0 0 0 0 0 0 0 0 0 0 0 0 0 0 0 0 0 0 0 0 0 0 0 0 0 0 0 0 0 0 19 0 0 0 0 0 0 0 0 0 0 0 0 0 0 0 0 0 0 0 0 0 0 0 0 0 0 0 0 0 0 0 0 0 0 0 0 0 0 0 0 0 0 0 0 0 0 0 0 0 0 0 0 0 144 121 121 144 0 0 0 0 0 0 0 0 0 0 0 0 0 0 0 0 0 0 0 0 0 0 0 0 0 0 0 0 0 0 0 0 0 0 0 0 0 0 0 0 0 0 0 0 0 0 0 0 0 0 9 1 4 0 0 4 0 0 0 0 0 0 0 0 0 0 0 0 0 0 0 0 0 0 8 4 0 0 0 0 0 0 0 0 0 0 0 0 0 0 0 0 0 0 0 0 0 0 0 0 0 0 0 0 144 144 0 0 0 0 0 0 0 0 0 0 0 0 0 0 0 0 0 0 0 0 0 0 0 0 0 0 0 0 0 0 0 0 0 0 0 0 0 0 0 0 0 0 0 0 0 0 0 0 0 0 0 0 0 33 0 0 150 8 0 0 0 0 0 0 0 0 0 0 0 0 0 0 0 0 0 0 0 0 0 0 0 0 0 0 0 147 0 0 0 0 0 0 0 0 0 0 0 0 0 0 68 240 4 93 129 0 0 0 0 0 0 0 0 0 0 0 0 0 0 0 0 0 0 0 0 0 0 0 0 0 0 0 19 0 0 0 0 0 0 0 0 0 0 0 0 0 0 0 0 24 70 1 0 0 0 0 0 0 0 0 0 0 0 0 0 0 0 0 0 0 0 0 3 0 0 0 0 0 0 0 0 7 0 0 0 0 0 0 0 0 0 0 0 0 0 0 0 0 14 0 2 0 0 42 0 0 0 0 0 0 0 0 0 0 0 0 0 0 0 0 0 0 0 0 0 0 0 0 0 0 0 0 0 0 0 0 0 0 27 0 0 36 36 72 0 32 4 0 0 0 0 0 0 0 0 0 0 0 0 0 0 0 0 0 0 0 0 0 0 0 0 0 0 0 0 0 0 0 111 0 9 0 0 0 0 0 0 0 0 0 0 0 0 0 0 0 0 0 1135 0 0 0 0 0 0 0 0 0 0 0 0 0 0 0 0 0 0 0 0 0 0 0 0 0 0 0 0 0 0 0 0 0 0 0 0 0 0 6 0 0 0 0 0 0 0 0 0 2 0 0 0 0 0 0 0 0 0 0 0 0 0 0 0 0 22 0 0 16 0 8 0 0 0 0 0 0 0 0 0 0 0 0 0 0 0 0 0 0 0 0 0 0 0 0 0 0 0 0 0 0 0 0 0 0 0 0 0 0 0 0 0 0 0 0 0 0 0 0 0 0 0 0 0 0 0 0 0 0 0 0 0 0 0 0 0 0 0 0 0 0 0 0 0 0 0 0 0 0 0 0 0 0 0 6 0 0 0 0 0 0 0 0 0 0 0 0 0 0 0 0 0 0 0 0 0 0 0 0 0 0 0 0 0 0 0 0 0 0 0 0 0 0 0 0 0 0 0 0 0 0 0 0 0 0 0 0 0 0 0 0 0 0 0 0 0 0 0 0 0 0 0 0 0 0 0 0 0 0 0 0 0 0 0 0 0 0 0 144 0 0 0 0 0 0 0 0 0 0 0 0 0 0 0 0 0 0 0 0 0 0 0 0 0 0 0 0 0 0 0 0 0 0 0 0 0 0 0 0 0 0 0 0 0 0 0 0 0 0 0 0 0 0 0 0 0 0 0 0 0 0 0 0 0 0 0 0 0 0 0 0 0 0 0 0 0 0 0 0 0 0 0 0 0 0 0 0 0 0 0 0 0 0 0 0 0 0 0 0 0 0 0 0 0 0 0 80 0 0 0 0 0 0 0 0 0 0 0 0 0 0 0 0 0 0 0 0 0 0 0 0 0 0 0 0 0 0 0 0 0 0 0 0 0 0 0 0 0 0 0 0 0 0 0 0 0 0 0 0 0 0 0 0 0 0 0 0 0 0 0 0 0 0 0 0 0 0 0 0 0 0 0 0 0 0 0 0 0 0 0 0 0 0 0 0 0 0 0 0 0 0 0 0 0 0 0 0 0 0 0 0 0 0 0 0 0 0 0 0 0 0 0 0 0 0 0 0 0 0 0 0 0 0 0 0 0 0 0 0 0 0 0 0 0 0 0 0 0 0 0 0 0 0 0 0 0 0 0 0 0 0 0 0 0 0 0 0 0 0 0 0 0 0 0 0 0 0 0 0 0 0 0 0 0 0 0 0 0 0 0 0 0 0 0 0 0 0 0 0 0 0 0 0 0 0 0 0 0 0 0 0 0 0 0 0 0 0 0 0 0 0 0 0 0 0 0 0 0 0 0 0 40 0 0 0 0 0 0 0 0 0 0 0 0 0 0 0 0 0 0 0 0 0 0 0 0 0 0 0 0 0 0 0 0 0 0 0 0 0 0 0 0 0 0 0 0 0 0 0 0 0 0 0 0 0 0 0 0 0 0 0 0 0 0 0 0 0 0 0 0 0 0 0 0 0 0 0 0 8 0 0 0 0 0 0 0 0 0 0 0 0 0 0 0 0 0 0 0 0 0 0 0 0 0 0 0 0 0 0 0 0 0 0 0 0 0 0 0 0 0 0 0 0 0 0 0 0 0 0 0 0 0 0 0 0 0 0 0 0 0 0 0 0 0 0 0 0 0 0 0 0 0 0 0 0 0 0 0 0 0 0 0 0 0 0 0 0 0 0 0 0 0 0 0 0 0 0 0 0 0 0 0 0 0 0 0 0 0 0 0 0 0 0 0 0 0 0 0 0 0 0 0 0 0 0 0 0 0 0 0 0 0 0 0 0 0 0 0 0 0 0 0 0 0 0 0 0 0 0 0 0 0 0 0 0 0 0 0 0 0 0 0 0 0 0 0 0 0 0 0 0 0 0 0 0 0 0 0 0 0 0 0 0 0 0 
Printing Sanity2
Heartbeat CPU 0 instructions: 60000000 cycles: 37026437 heartbeat IPC: 0.431916 cumulative IPC: 0.431916 (Simulation time: 0 hr 4 min 1 sec) 
*** Reached end of trace for Core: 0 Repeating trace: traces/spec2k17/srv_10.champsimtrace.xz
Heartbeat CPU 0 instructions: 70000003 cycles: 60587365 heartbeat IPC: 0.424432 cumulative IPC: 0.428141 (Simulation time: 0 hr 5 min 3 sec) 
Heartbeat CPU 0 instructions: 80000001 cycles: 84060641 heartbeat IPC: 0.426016 cumulative IPC: 0.42743 (Simulation time: 0 hr 6 min 4 sec) 
Heartbeat CPU 0 instructions: 90000000 cycles: 107056705 heartbeat IPC: 0.434857 cumulative IPC: 0.429263 (Simulation time: 0 hr 7 min 1 sec) 
*** Reached end of trace for Core: 0 Repeating trace: traces/spec2k17/srv_10.champsimtrace.xz
Heartbeat CPU 0 instructions: 100000002 cycles: 130543256 heartbeat IPC: 0.425776 cumulative IPC: 0.428561 (Simulation time: 0 hr 8 min 4 sec) 
Heartbeat CPU 0 instructions: 110000000 cycles: 154010176 heartbeat IPC: 0.426132 cumulative IPC: 0.428154 (Simulation time: 0 hr 9 min 7 sec) 
Heartbeat CPU 0 instructions: 120000000 cycles: 177097509 heartbeat IPC: 0.433138 cumulative IPC: 0.428859 (Simulation time: 0 hr 10 min 10 sec) 
*** Reached end of trace for Core: 0 Repeating trace: traces/spec2k17/srv_10.champsimtrace.xz
Heartbeat CPU 0 instructions: 130000002 cycles: 200396629 heartbeat IPC: 0.429201 cumulative IPC: 0.428902 (Simulation time: 0 hr 11 min 12 sec) 
Heartbeat CPU 0 instructions: 140000003 cycles: 223933435 heartbeat IPC: 0.424867 cumulative IPC: 0.42845 (Simulation time: 0 hr 12 min 15 sec) 
Heartbeat CPU 0 instructions: 150000000 cycles: 247077769 heartbeat IPC: 0.432071 cumulative IPC: 0.428809 (Simulation time: 0 hr 13 min 17 sec) 
*** Reached end of trace for Core: 0 Repeating trace: traces/spec2k17/srv_10.champsimtrace.xz
Heartbeat CPU 0 instructions: 160000002 cycles: 270334343 heartbeat IPC: 0.429986 cumulative IPC: 0.428916 (Simulation time: 0 hr 14 min 18 sec) 
Heartbeat CPU 0 instructions: 170000000 cycles: 293704002 heartbeat IPC: 0.427905 cumulative IPC: 0.428831 (Simulation time: 0 hr 15 min 16 sec) 
Heartbeat CPU 0 instructions: 180000000 cycles: 316881222 heartbeat IPC: 0.431458 cumulative IPC: 0.429032 (Simulation time: 0 hr 16 min 17 sec) 
*** Reached end of trace for Core: 0 Repeating trace: traces/spec2k17/srv_10.champsimtrace.xz
Heartbeat CPU 0 instructions: 190000000 cycles: 340155977 heartbeat IPC: 0.42965 cumulative IPC: 0.429076 (Simulation time: 0 hr 17 min 22 sec) 
Heartbeat CPU 0 instructions: 200000001 cycles: 363508506 heartbeat IPC: 0.428219 cumulative IPC: 0.429019 (Simulation time: 0 hr 18 min 19 sec) 
Heartbeat CPU 0 instructions: 210000001 cycles: 386947530 heartbeat IPC: 0.426639 cumulative IPC: 0.42887 (Simulation time: 0 hr 19 min 19 sec) 
*** Reached end of trace for Core: 0 Repeating trace: traces/spec2k17/srv_10.champsimtrace.xz
Heartbeat CPU 0 instructions: 220000000 cycles: 410129767 heartbeat IPC: 0.431365 cumulative IPC: 0.429016 (Simulation time: 0 hr 20 min 20 sec) 
Heartbeat CPU 0 instructions: 230000000 cycles: 433458821 heartbeat IPC: 0.42865 cumulative IPC: 0.428995 (Simulation time: 0 hr 21 min 23 sec) 
Heartbeat CPU 0 instructions: 240000000 cycles: 456485778 heartbeat IPC: 0.434274 cumulative IPC: 0.42927 (Simulation time: 0 hr 22 min 22 sec) 
*** Reached end of trace for Core: 0 Repeating trace: traces/spec2k17/srv_10.champsimtrace.xz
Heartbeat CPU 0 instructions: 250000001 cycles: 479776657 heartbeat IPC: 0.429353 cumulative IPC: 0.429274 (Simulation time: 0 hr 23 min 23 sec) 
Finished CPU 0 instructions: 200000000 cycles: 465902882 cumulative IPC: 0.429274 (Simulation time: 0 hr 23 min 23 sec) 

ChampSim completed all CPUs

Region of Interest Statistics

CPU 0 cumulative IPC: 0.429274 instructions: 200000000 cycles: 465902882
ITLB TOTAL     ACCESS:   31520006  HIT:   30725668  MISS:     794338  HIT %:    97.4799  MISS %:    2.52011   MPKI: 3.97169
ITLB LOAD TRANSLATION ACCESS:   31520006  HIT:   30725668  MISS:     794338  HIT %:    97.4799  MISS %:    2.52011   MPKI: 3.97169
ITLB PREFETCH  REQUESTED:          0  ISSUED:          0  USEFUL:          0  USELESS:          0
ITLB USEFUL LOAD PREFETCHES:          0 PREFETCH ISSUED TO LOWER LEVEL:          0  ACCURACY: -nan
ITLB TIMELY PREFETCHES:          0 LATE PREFETCHES: 0 DROPPED PREFETCHES: 0
ITLB PREFETCHES SAME FILL-ORIGIN LEVEL: 0 DIFFERENT FILL-ORIGIN LEVEL: 0
ITLB AVERAGE MISS LATENCY: 15.8031 cycles
ITLB RQ	ACCESS:   38422695	FORWARD:          0	MERGED:    6711532	TO_CACHE:   31711163

DTLB TOTAL     ACCESS:   37367545  HIT:   34852599  MISS:    2514946  HIT %:    93.2697  MISS %:    6.73029   MPKI: 12.5747
DTLB LOAD TRANSLATION ACCESS:   37367545  HIT:   34852599  MISS:    2514946  HIT %:    93.2697  MISS %:    6.73029   MPKI: 12.5747
DTLB PREFETCH  REQUESTED:          0  ISSUED:          0  USEFUL:          0  USELESS:          0
DTLB USEFUL LOAD PREFETCHES:          0 PREFETCH ISSUED TO LOWER LEVEL:          0  ACCURACY: -nan
DTLB TIMELY PREFETCHES:          0 LATE PREFETCHES: 0 DROPPED PREFETCHES: 0
DTLB PREFETCHES SAME FILL-ORIGIN LEVEL: 0 DIFFERENT FILL-ORIGIN LEVEL: 0
DTLB AVERAGE MISS LATENCY: 13.9998 cycles
DTLB RQ	ACCESS:   47819278	FORWARD:          0	MERGED:   10299161	TO_CACHE:   37520117

STLB TOTAL     ACCESS:    3388092  HIT:    2924447  MISS:     463645  HIT %:    86.3155  MISS %:    13.6845   MPKI: 2.31822
STLB LOAD TRANSLATION ACCESS:    3309284  HIT:    2845639  MISS:     463645  HIT %:    85.9896  MISS %:    14.0104   MPKI: 2.31822
STLB TRANSLATION FROM L1D PREFETCHER ACCESS:      78808  HIT:      78808  MISS:          0  HIT %:        100  MISS %:          0   MPKI: 0
STLB PREFETCH  REQUESTED:          0  ISSUED:          0  USEFUL:          0  USELESS:          0
STLB USEFUL LOAD PREFETCHES:          0 PREFETCH ISSUED TO LOWER LEVEL:          0  ACCURACY: -nan
STLB TIMELY PREFETCHES:          0 LATE PREFETCHES: 0 DROPPED PREFETCHES: 782273
STLB PREFETCHES SAME FILL-ORIGIN LEVEL: 0 DIFFERENT FILL-ORIGIN LEVEL: 0
STLB AVERAGE MISS LATENCY: 38.6029 cycles
STLB RQ	ACCESS:    4170366	FORWARD:          0	MERGED:          0	TO_CACHE:    4170366

STLB Hit, L1D data hit: 0
STLB Hit, L2C data hit: 0
STLB Hit, LLC data hit: 0
STLB Hit, LLC data miss: 0
STLB STLB hints to L2: 0
L1D TOTAL     ACCESS:   47310149  HIT:   44778136  MISS:    2532013  HIT %:    94.6481  MISS %:    5.35194   MPKI: 12.6601
L1D LOAD      ACCESS:   27736341  HIT:   25571505  MISS:    2164836  HIT %:    92.1949  MISS %:    7.80505   MPKI: 10.8242
L1D RFO       ACCESS:   19495007  HIT:   19130727  MISS:     364280  HIT %:    98.1314  MISS %:    1.86858   MPKI: 1.8214
L1D PREFETCH  ACCESS:      78801  HIT:      75904  MISS:       2897  HIT %:    96.3237  MISS %:    3.67635   MPKI: 0.014485
AGUS PREFETCH L1 MISS: 0
L1D PREFETCH  REQUESTED:    1821552  ISSUED:    1821552  USEFUL:          0  USELESS:       2897
L1D USEFUL LOAD PREFETCHES:          0 PREFETCH ISSUED TO LOWER LEVEL:       2897  ACCURACY: 0
L1D TIMELY PREFETCHES:          0 LATE PREFETCHES: 0 DROPPED PREFETCHES: 782273
L1D PREFETCHES SAME FILL-ORIGIN LEVEL: 2897 DIFFERENT FILL-ORIGIN LEVEL: 0
L1D AVERAGE MISS LATENCY: 44.2776 cycles
L1D RQ	ACCESS:   42009498	FORWARD:          0	MERGED:   13910086	TO_CACHE:   27885076
L1D WQ	ACCESS:   20227584	FORWARD:     214336	MERGED:     293382	TO_CACHE:   19934202
L1D PQ	ACCESS:     960470	FORWARD:          0	MERGED:      99388	TO_CACHE:     861082

L1D UNIQUE REGIONS ACCESSED: 0
L1D REGIONS CONFLICTS: 0
L1D Cross Page Prefetch Requests: 880783
L1D Same Page Prefetch Requests: 79687
L1D ROI Sum of L1D PQ occupancy: 31775331
L1D PREFETCHES PUSHED FROM L2C: 0
L1I TOTAL     ACCESS:   36763950  HIT:   31720519  MISS:    5043431  HIT %:    86.2816  MISS %:    13.7184   MPKI: 25.2172
L1I LOAD      ACCESS:   36763950  HIT:   31720519  MISS:    5043431  HIT %:    86.2816  MISS %:    13.7184   MPKI: 25.2172
L1I PREFETCH  REQUESTED:          0  ISSUED:          0  USEFUL:          0  USELESS:          0
L1I USEFUL LOAD PREFETCHES:          0 PREFETCH ISSUED TO LOWER LEVEL:          0  ACCURACY: -nan
L1I TIMELY PREFETCHES:          0 LATE PREFETCHES: 0 DROPPED PREFETCHES: 0
L1I PREFETCHES SAME FILL-ORIGIN LEVEL: 0 DIFFERENT FILL-ORIGIN LEVEL: 0
L1I AVERAGE MISS LATENCY: 27.7199 cycles
L1I RQ	ACCESS:   57063091	FORWARD:          0	MERGED:   18640396	TO_CACHE:   38422695

BTB TOTAL     ACCESS:   22616971  HIT:   17672573  MISS:    4944398  HIT %:    78.1385  MISS %:    21.8615   MPKI: 24.722
BTB BRANCH_DIRECT_JUMP	ACCESS:    1742577  HIT:    1446257  MISS:     296320
BTB BRANCH_INDIRECT	ACCESS:    9604965  HIT:    7286777  MISS:    2318188
BTB BRANCH_CONDITIONAL	ACCESS:    4679517  HIT:    4209943  MISS:     469574
BTB BRANCH_DIRECT_CALL	ACCESS:    2572130  HIT:    1992728  MISS:     579402
BTB BRANCH_INDIRECT_CALL	ACCESS:     719271  HIT:     661890  MISS:      57381
BTB BRANCH_RETURN	ACCESS:    3298511  HIT:    2074978  MISS:    1223533
BTB BRANCH_OTHER ACCESS:          0  HIT:          0  MISS:          0

L2C TOTAL     ACCESS:   10462008  HIT:    6648863  MISS:    3813145  HIT %:    63.5525  MISS %:    36.4475   MPKI: 19.0657
L2C LOAD      ACCESS:    7208044  HIT:    3845542  MISS:    3362502  HIT %:    53.3507  MISS %:    46.6493   MPKI: 16.8125
L2C DATA LOAD MPKI: 5.5923
L2C INSTRUCTION LOAD MPKI: 11.2202
L2C RFO       ACCESS:     364274  HIT:     184297  MISS:     179977  HIT %:     50.593  MISS %:     49.407   MPKI: 0.899885
L2C PREFETCH  ACCESS:       2897  HIT:       2795  MISS:        102  HIT %:    96.4791  MISS %:    3.52088   MPKI: 0.00051
AGUS PREFETCH L1 MISS: 0
L2C DATA PREFETCH MPKI: 0.00051
L2C INSTRUCTION PREFETCH MPKI: 0
L2C WRITEBACK ACCESS:    1011416  HIT:     956241  MISS:      55175  HIT %:    94.5448  MISS %:    5.45522   MPKI: 0.275875
L2C LOAD TRANSLATION ACCESS:     588812  HIT:     373557  MISS:     215255  HIT %:    63.4425  MISS %:    36.5575   MPKI: 1.07628
L2C TRANSLATION FROM L1D PREFETCHER ACCESS:    1286565  HIT:    1286431  MISS:        134  HIT %:    99.9896  MISS %:  0.0104153   MPKI: 0.00067
L2C PREFETCH  REQUESTED:          0  ISSUED:          0  USEFUL:        134  USELESS:        100
L2C USEFUL LOAD PREFETCHES:        134 PREFETCH ISSUED TO LOWER LEVEL:        102  ACCURACY: 131.373
L2C TIMELY PREFETCHES:        134 LATE PREFETCHES: 0 DROPPED PREFETCHES: 0
L2C PREFETCHES SAME FILL-ORIGIN LEVEL: 0 DIFFERENT FILL-ORIGIN LEVEL: 0
L2C AVERAGE MISS LATENCY: 39.2759 cycles
L2C RQ	ACCESS:    9447923	FORWARD:          0	MERGED:          0	TO_CACHE:    9447695
L2C WQ	ACCESS:    1011416	FORWARD:        228	MERGED:          0	TO_CACHE:    1011416
L2C PQ	ACCESS:       2897	FORWARD:          0	MERGED:          0	TO_CACHE:       2897

L2C Instructions Evicting Data 793109
L2C Translations Evicting Data 78948
L2C Data Evicting Data 461675
L2C Instructions Evicting Instructions 1325401
L2C Translations Evicting Instructions 124771
L2C Data Evicting Instructions 761936
L2C Instructions Evicting Translations 125532
L2C Translations Evicting Translations 11670
L2C Data Evicting Translations 74928
L2C Dense regions hint from L2: 0
PSCL5 TOTAL     ACCESS:    1245918  HIT:    1245918  MISS:          0  HIT %:        100  MISS %:          0   MPKI: 0
PSCL5 LOAD TRANSLATION ACCESS:     463645  HIT:     463645  MISS:          0  HIT %:        100  MISS %:          0   MPKI: 0
PSCL5 TRANSLATION FROM L1D PREFETCHER ACCESS:     782273  HIT:     782273  MISS:          0  HIT %:        100  MISS %:          0   MPKI: 0
PSCL5 PREFETCH  REQUESTED:          0  ISSUED:          0  USEFUL:          0  USELESS:          0
PSCL5 USEFUL LOAD PREFETCHES:          0 PREFETCH ISSUED TO LOWER LEVEL:          0  ACCURACY: -nan
PSCL5 TIMELY PREFETCHES:          0 LATE PREFETCHES: 0 DROPPED PREFETCHES: 0
PSCL5 PREFETCHES SAME FILL-ORIGIN LEVEL: 0 DIFFERENT FILL-ORIGIN LEVEL: 0

PSCL4 TOTAL     ACCESS:    1188695  HIT:    1187554  MISS:       1141  HIT %:     99.904  MISS %:  0.0959876   MPKI: 0.005705
PSCL4 LOAD TRANSLATION ACCESS:     434791  HIT:     433650  MISS:       1141  HIT %:    99.7376  MISS %:   0.262425   MPKI: 0.005705
PSCL4 TRANSLATION FROM L1D PREFETCHER ACCESS:     753904  HIT:     753904  MISS:          0  HIT %:        100  MISS %:          0   MPKI: 0
PSCL4 PREFETCH  REQUESTED:          0  ISSUED:          0  USEFUL:          0  USELESS:          0
PSCL4 USEFUL LOAD PREFETCHES:          0 PREFETCH ISSUED TO LOWER LEVEL:          0  ACCURACY: -nan
PSCL4 TIMELY PREFETCHES:          0 LATE PREFETCHES: 0 DROPPED PREFETCHES: 0
PSCL4 PREFETCHES SAME FILL-ORIGIN LEVEL: 0 DIFFERENT FILL-ORIGIN LEVEL: 0

PSCL3 TOTAL     ACCESS:    1232187  HIT:    1228475  MISS:       3712  HIT %:    99.6987  MISS %:   0.301253   MPKI: 0.01856
PSCL3 LOAD TRANSLATION ACCESS:     460242  HIT:     456530  MISS:       3712  HIT %:    99.1935  MISS %:   0.806532   MPKI: 0.01856
PSCL3 TRANSLATION FROM L1D PREFETCHER ACCESS:     771945  HIT:     771945  MISS:          0  HIT %:        100  MISS %:          0   MPKI: 0
PSCL3 PREFETCH  REQUESTED:          0  ISSUED:          0  USEFUL:          0  USELESS:          0
PSCL3 USEFUL LOAD PREFETCHES:          0 PREFETCH ISSUED TO LOWER LEVEL:          0  ACCURACY: -nan
PSCL3 TIMELY PREFETCHES:          0 LATE PREFETCHES: 0 DROPPED PREFETCHES: 0
PSCL3 PREFETCHES SAME FILL-ORIGIN LEVEL: 0 DIFFERENT FILL-ORIGIN LEVEL: 0

PSCL2 TOTAL     ACCESS:     745503  HIT:     625189  MISS:     120314  HIT %:    83.8614  MISS %:    16.1386   MPKI: 0.60157
PSCL2 LOAD TRANSLATION ACCESS:     463645  HIT:     343331  MISS:     120314  HIT %:    74.0504  MISS %:    25.9496   MPKI: 0.60157
PSCL2 TRANSLATION FROM L1D PREFETCHER ACCESS:     281858  HIT:     281858  MISS:          0  HIT %:        100  MISS %:          0   MPKI: 0
PSCL2 PREFETCH  REQUESTED:          0  ISSUED:          0  USEFUL:          0  USELESS:          0
PSCL2 USEFUL LOAD PREFETCHES:          0 PREFETCH ISSUED TO LOWER LEVEL:          0  ACCURACY: -nan
PSCL2 TIMELY PREFETCHES:          0 LATE PREFETCHES: 0 DROPPED PREFETCHES: 0
PSCL2 PREFETCHES SAME FILL-ORIGIN LEVEL: 0 DIFFERENT FILL-ORIGIN LEVEL: 0

LLC TOTAL     ACCESS:    4236116  HIT:    4001745  MISS:     234371  HIT %:    94.4673  MISS %:    5.53269   MPKI: 1.17186
LLC LOAD      ACCESS:    3362502  HIT:    3173630  MISS:     188872  HIT %:     94.383  MISS %:    5.61701   MPKI: 0.94436
LLC RFO       ACCESS:     179977  HIT:     138464  MISS:      41513  HIT %:    76.9343  MISS %:    23.0657   MPKI: 0.207565
LLC PREFETCH  ACCESS:        102  HIT:         93  MISS:          9  HIT %:    91.1765  MISS %:    8.82353   MPKI: 4.5e-05
AGUS PREFETCH L1 MISS: 0
LLC WRITEBACK ACCESS:     478146  HIT:     476933  MISS:       1213  HIT %:    99.7463  MISS %:   0.253688   MPKI: 0.006065
LLC LOAD TRANSLATION ACCESS:     215255  HIT:     212491  MISS:       2764  HIT %:    98.7159  MISS %:    1.28406   MPKI: 0.01382
LLC TRANSLATION FROM L1D PREFETCHER ACCESS:        134  HIT:        134  MISS:          0  HIT %:        100  MISS %:          0   MPKI: 0
LLC PREFETCH  REQUESTED:          0  ISSUED:          0  USEFUL:          0  USELESS:          9
LLC USEFUL LOAD PREFETCHES:          0 PREFETCH ISSUED TO LOWER LEVEL:          9  ACCURACY: 0
LLC TIMELY PREFETCHES:          0 LATE PREFETCHES: 0 DROPPED PREFETCHES: 0
LLC PREFETCHES SAME FILL-ORIGIN LEVEL: 0 DIFFERENT FILL-ORIGIN LEVEL: 0
LLC AVERAGE MISS LATENCY: 157.97 cycles
LLC RQ	ACCESS:    3757868	FORWARD:          0	MERGED:          0	TO_CACHE:    3757868
LLC WQ	ACCESS:     478146	FORWARD:          0	MERGED:          0	TO_CACHE:     478146
LLC PQ	ACCESS:        102	FORWARD:          0	MERGED:          0	TO_CACHE:        102

LLC Dense regions hint to LLC: 0

RAW hits: 2713944
Loads Generated: 44723442
Loads sent to L1D: 42009498
Stores Generated: 20227563
Stores sent to L1D: 20227584
Major fault: 0 Minor fault: 4015
Allocated PAGES: 4015
ucb ended
-----------------------------------------------------------------------------------------------------------------------------------------------------------------------------------------------------
Offsets elements: -4397639961429 4397639961429 -5821231 -2981205 -4397631158994 3 4397638358261 -4397638358260 4397638358260 -4397636753715 -389003069 4398021538719 -4397634140195 -7199269 8802435 -4397507497562 -130858763 73757 4397632461337 -4397634140194 4397638358259 -7199267 7199267 -7199268 7199268 7199269 -4218065 -4397634140193 4397631158989 2981204 -4397631933198 -2206995 4397634140193 -4397634140192 4397638358257 4397634140192 -4397634140191 4397638358256 1 4397638358255 -4397629615377 4397637197957 -4397636534574 4397628951994 -4397629471222 -24914 -5 616276 4397628879866 -4397629502880 6207 -6207 5350 857 -389060137 389060137 465631 152033 -152033 -45022 4397629076920 -4397637879355 -4397629076920 124926 -59081 4397636593655 -4601376 -4397632477340 -1662850 4397631158984 7199271 -7199271 -4397636695381 -453 546122 -546122 -6017 -1656407 1656409 623081 -367 -70578 70578 -70577 70577 367 4397628879497 -8802434 -4397629076921 198106 4397628878813 -4397628844150 -35346 4397628879496 -4397628844149 28399 -137362 4397628953113 -4397637755547 4397628953112 -1 -4397634140257 67 -3 4397631158988 -4397631159056 4397631159056 -4397631159055 -387398383 388942074 4397637152647 -4397637103197 -1593141 4397638696343 -4397636489277 -2207067 1600107 4397632540157 -4397634140189 4397634140189 -4397634140188 4397638358253 355683 -355683 -4397636760076 -96427 4397636856502 -4397638358255 4397634140190 355684 -4397637056876 -1657064 2981207 -4397634140187 4397631158981 -4397629558951 130834586 -130692505 4397636616141 -4397638358256 -4397505923445 -132434811 -4397631158983 -74 4397631159057 8802438 -8802438 4397631158979 4397631158985 8802436 -4397639961420 -4397634140186 4397638358251 -7199270 -4397628951992 108067 -2315059 2314835 -2314836 2343238 -2343238 2061075 -2061075 2045684 -2045685 2045685 297553 4397628815746 -4397628878809 4397637681245 -4397639961490 4397631159053 -4397631159053 2280245 -675636 4397632535650 4397631158980 -8802436 -4397631159054 2207061 -2206990 -73 2280247 4397631860014 -4397632535650 -1604611 76 4397638358250 -4397636078079 -1604538 4397631158982 -4397628878808 -2280241 4397638358320 -4397638358360 35 5 -4397634140185 7199270 -4397639961418 -4397628878811 -2280187 4397634140200 4397631158983 2981202 -4397634140200 4397634140197 -4397634140184 -4397631158993 -4397638358261 4397634140196 -4397638358251 4397634140186 -13 4397631158994 8802433 -8802433 8802434 -1603166 -4397634140183 -4397631158985 4397634140187 -4397634140182 4397638358247 -4397631158996 2280183 -4397631158995 11 4397628878812 -4397631158984 1543603 130958304 4 4397499667578 -4397629889318 -242766 23666 -15390 15390 4397629097908 8802437 2981205 -4397634140181 4397638358246 -8802432 4397631158995 -4397638358265 4397631158997 -4397638358257 4397639961423 -8802435 -4397631158997 7 -4397638358248 4397634140183 14 4397638358258 -4397638358259 4397631159054 -4397629552922 130841932 4397502858805 -4397633700737 4397638355356 -4397639961432 4397631158993 -4397631158992 4397634140195 -4397634140180 4397638358245 -4397638358247 4397631158991 13 -4397631158982 4397634140185 6 -4398018557411 387398431 1686701 -1686701 2208606 -2208610 2115102 93528 130225446 -130225446 -93528 4397632025085 -4397634140179 2208622 4397638358244 -4397638358246 4397631158974 -4397639961412 -4397631158975 -387398354 4398018557329 -8802437 -4397638355211 4397629552776 4397634140194 -4397634140178 4397638358243 4397634140181 -15 -4397639961411 4397631158976 -4397631159002 1543620 -1543606 2 15 2206989 2343124 -2343122 -4 -2 4397639961414 -4397639961433 2206990 136134 4397639961418 -4397507459420 4397498656986 -1543621 1543621 -1543615 -6 -7 8 8802431 -4397639961487 7599854 -7599853 -4397631159057 -19 38 4397631159038 -8802430 -20 75 4397634140202 -2981199 78 -118 39 -17 4397634140273 -4397634140177 -95 4397634140272 -4397634140176 4397638758830 -400589 -7199264 7599853 -4618654 4573748 -4397637113905 -1600018 4397638358240 -1598163 4397634140174 -4397632638438 -1501737 4397638358239 4397629501926 2981201 -4397632540157 -1600016 4397631158977 -4397505923636 191 -130692696 -243816 4397632641892 -2981202 -4397631158972 -4397639961407 4397634140176 -4397634140173 4397638358238 -7199265 7199265 -4397631158976 7199263 400589 -7599852 -4397629552585 -1606474 4397631159059 -4397631158980 -78 -387398230 389003658 -389003658 388941915 135739 -134324 -22109 -388921221 4398018557286 -1202576 -4618655 -4397631158973 4397631158972 1605351 -1605430 4397631159060 -4397631159058 -387398189 387398189 1587693 4397629571365 -1202575 -7599854 2981199 -4397632552543 -1587629 -4397634140171 4397631158970 7199266 -4397639961405 4397639961405 -4397631158974 -8802429 -4397638358240 -101 -4397631158971 4397638758824 -4397637158812 -4397634140169 4397634140169 4397638358234 4397636760076 -4397636856503 4397632638438 -4397634140168 1501732 -1501731 4397638358233 -1600015 4397638358232 -4397638358237 -4397498724370 -96056 4397629512930 -4397634140167 4397631158965 -4397631158969 -4397639961400 -4397634140166 4397638358231 -7199263 -4397631158970 4397631158971 7199264 -7199262 -4397631159040 4397638358302 2981198 -4397634140165 4397631158966 -4397628951998 4397631797063 -4397634140164 4397634140165 4397631158962 -4397628951997 -2207056 2279185 1055 -1055 64008 -64009 64009 -134585 74547 -130439 130439 -2915 4397634140255 4397638358229 -7199261 8802427 -8802427 -4397639961398 -4397631177151 -387381320 387399486 132501445 4397499665022 -4397632166476 4397639961411 -8802426 -4397631177150 13647340 -13647344 1628860 11940588 -11940577 -10 -389010178 389000403 -1619083 1618685 24 4397637152996 -4397637152995 4397637152995 -4397637153557 12029192 -11926101 -102157 4397629558068 4397499665026 -4397632166480 2206982 -389605163 4398018557164 -4397628952001 11344297 -11344296 -389605103 389025667 715677 -760976 10864 -94816 -388896416 -760963 4397629576720 -4397629544915 -389012185 4398018557101 8802428 -4397632543049 -1597115 1662438 4397629496529 7199262 -4397638358245 -58 4397631159041 -22 -12 -8802428 4397499665029 7794928 4397499665221 -4397632184841 18166 4397638725923 -4397637140803 -35715 4397638252205 150321 313 22336 -4976 -8810621 -4397631158981 4397638725922 -4397637119526 -1606392 1606391 -1606391 -4397631158978 -4397639961404 4397631158978 -1235488 -4397637138286 4397629571346 -4397629496344 4397629496345 -18166 18167 -4397631159003 23 -23 8802429 -77 4397631159058 -4397631158964 4397631158964 4397634140198 -4397634140162 -24 7607665 -7607665 -18159 18158 -4397631177141 18161 4397638766651 -4397638784810 2298333 1460 -1624157 -387379890 387379888 1697185 -55474 -1641711 1641711 4397631177142 4397638766661 -408398 -4397638358252 2981203 4397638358227 4397634140162 4397634140164 -4397634140161 4397638358226 -4397634140160 4397638766623 -4397638766627 -4398018556959 4398025756230 -4397631158958 -4397639961394 4397631158960 -4397631158961 132481296 -132481295 1603166 -4397639961395 4397631158963 -4397631158979 -4397631158963 55 2207004 -2207003 2343139 -2343134 2343133 -2343133 2207005 -2206998 4397634140182 -4397638358227 132441950 4397498717010 -4397631158960 -33 33 4397631158961 -4397629076929 -475995 4397632534125 -4397634140159 4397631158958 4397634140159 4397638358223 -4397638358226 4397634140161 -4397634140158 4397631158957 19 4397638769475 -4397636687444 -539606 99950 130838959 -29 -130938880 130938913 4397501155171 6324877 -4397638319017 130838934 4397507480083 -4397498677644 -130938888 -28 4397501155200 -4397501155172 4397501155172 -4397632094092 4397638418967 -4397638319020 4397629516585 -4397629516582 -130838933 130838938 4397507480079 -4397507480076 4397498677641 -4397629516585 4397631994145 4397501155168 -4397632094087 4397501155162 -4398021034385 4398027359300 -4397638462750 4397629660316 -4397638392560 4397629590127 8802432 -389604838 389060695 24914 -24919 -616276 -6738 -857 -5350 4397629076921 4397629076922 4397638769494 -4397636687438 4397631992279 -1662818 4397631158954 545670 -1656375 1656377 552136 70945 -70944 4397628879499 -4397629076922 -683 35346 -2343224 2205862 -2205885 -4397634140157 4397638358222 -4397638358229 7610516 -7610515 -18184 4397631177145 -4397638769494 4397634140180 4397631158956 -4397634140156 -7199266 -4397631177145 4397631177147 -4397631177146 2225149 -602452 -4397634140155 -4397631158954 4397631158953 -4397631158957 4397634140179 -4397634140153 4397638358218 4397636151263 -4397631158959 4397631158959 -4397638358224 8802430 4397638725899 -4397638725909 4397631158968 -4397631177149 13647341 -12016899 4397629546707 8647436 145511 312 22337 -8810623 -4397631158956 4397634140160 -4397634140152 4397631158951 -8 4397638358221 -4397631158955 2206958 4397636550014 -4397637069243 4397629496142 389525768 -465631 617664 -2082031 4397638756972 -4397636674941 -2082033 2315022 -2315022 1603945 534709 4397636624151 -4397636624151 -356336 -1782326 1525199 -1525199 132461975 -130323321 4397629020298 -4397629020298 4397637822734 -4397638179058 -1782318 1525149 130936826 -4397638179060 1525207 130936769 -4397638179059 -11 2138654 -4397631158952 4397639961388 -4397638179070 12 -1782330 1525168 -14 -1525154 1525139 -1525139 1525193 130936782 -132461975 2061667 130400308 -4397637822734 176368 -532692 279349 -457722 711078 -253355 221390 72677 9 -40720 40775 4397628803152 -4397637618452 4397631797221 -4397631797221 -2342930 2342930 4397631797220 -4397634140151 130088819 -130088819 4397636015285 -4397634140150 4397634140150 4397638358215 -4397638358218 4397638762802 -4397637100377 28590 130748926 -130777516 -1662425 1662618 -1662618 -4397638270369 4397637065955 -4397637159866 93911 -86314 86314 -28590 193 -57917 4397637152269 -7598020 -4397631158950 4397639961384 2981209 2080799 126159 -126159 -389604780 389677691 4397636477104 -4398026154805 4398018556785 -4397629573857 -388982849 389753123 4397628803581 -4397631158948 2172806 -389570471 4398027359049 -4397638376291 4397629609570 4397634140153 -4397634140149 -4398018556615 388982758 4397629573855 -4397638412006 -4398018556545 388982689 -4397631158947 4397631158947 132435355 4397502791983 -4397635227351 4397639961383 -4397639961384 4397631158948 -1204414 -7598021 -2082032 73180 1119 4397636550016 -4397628879083 -600653 663991 -389740870 4397638376291 4397629609572 4397631158946 -4397634140148 4397634140148 -4397634140147 4397634140147 4397638358211 -4397638358221 -389604837 389060696 616271 -591357 4397629076917 4397629076918 -4398018556613 4397629573854 4397629609569 -4397629076917 4397637879355 2981206 -4397634140146 4397631158941 -4397631158940 376575 -4397636585332 -548969 -562 549504 4397636585333 -7575845 -4397629471924 4397636671194 -4218059 -4397632059366 130381621 -130381615 -438394 -110587 493366 -2025183 4397638358217 -4397638358217 -4397634140145 1662424 4397637072368 -4397637072175 -64575 196 36 -60 60 -186 4397629560858 -1226591 -4397637133995 -306 4397637134839 -4397637134838 4397629558991 -4397631158941 132466613 -130865821 102249 -1703046 4397639961378 -4397631158953 4397634140152 -4397634140144 4397638358209 4397631158950 -4397631158951 4397631158949 -4397631158945 4397638745616 -4397638745609 1691008 -1691015 -1662611 2149458 4397637811919 -4397639961387 1600495 -25 4397637145100 -4397637145099 4397637145099 -4397637234004 191435 446417 -549508 78657 -129380 4397632590921 -4397632629712 131000736 -132511167 4397631158938 8642635 17360 4977 -1616335 1593686 -145511 163184 4976 -22337 -8793269 4397638358216 -4397636847777 4397632629718 4542006 -4397636601372 -393769 130775390 4397632608341 -4397632114975 55609 4397636601366 -4397637150347 4047 489319 -2025368 4397631159130 -4397634140143 4397631158937 -4397634140142 4397634140142 4397638358207 -4397636847776 71235 4397637163940 -4397637235175 4397632629711 1581663 4397636776544 -4397638358535 1581991 4397637163943 1215767 -4397631170645 4397638369892 -4397636776521 4397636779633 -4397636850865 -71235 513610 -442299 4397629577198 -4397631158949 4397631158952 4397639961382 4397638701240 -4397637104140 -1597106 1662433 4397638289474 -145512 17674 -17360 -8815605 4397639951900 17673 -8793268 -4397631158943 -4397634140141 4397634140141 4397638358206 -4397638358213 -4397634140140 4397634140146 4218059 -4397638358208 4397634140143 4397638358208 -4397631158937 4397634140145 5392000 -830916 -4561081 5661152 82 4914 -4510 -607 5419 -5666460 -2981208 8642518 4240 -5665544 5665536 -8646748 2981212 4397637724902 -5665529 5661276 -8147627 8154153 -8154154 2486353 5661385 -5421839 5423073 -1204 -8642555 8801919 -5820790 5392003 -8373214 8647447 17672 -17361 -8815611 -4398018556523 4398027198893 -5666456 269442 -8642576 3220686 -3220769 3220772 -239557 274153 -4729 -8642639 3220768 -3220767 -3220686 -3220685 -87 3220773 288223780704150632 -2200618731700 2200618731700 -288223780707371400 288223780707371650 -2200618729313 2200618729310 -2200618729333 2200618729325 -239 250 -46588 46338 -46359 46359 244 -2200618644763 3603265 2200615041254 -288223780704150633 288223780704104296 46576 -241 -46371 -2200614994883 -2200615041254 2200615041496 11130835 -11130834 -11131076 236 -2200618644835 2200629775941 -11131100 -242 -46349 11177433 -11130835 11130836 -617984 617984 518143 -518144 101888 -2559 2304 -101632 101632 11029204 -619003 619008 -11130839 11130838 -11130838 -243 -46372 46372 26 46345 -2200618644599 -2200629775926 2200629775938 -11131118 11130691 -11130691 11131072 34 -11177714 11177714 -2200629775932 1642 2200618643180 11131108 -11131107 -2200618644754 2200618598158 11177702 -11177713 -2200618682822 2200618682813 62968 11114747 -11177712 62965 -62966 62966 -62965 208 -207 20 -56410 102992 -46600 11114744 62962 -62962 62964 -62964 62963 62967 -62940 -31 31 11177649 -11131308 -46370 -2200618661195 2200629775721 -11114523 11114745 -11235926 81254 -81253 121179 -121178 121176 -39907 11154622 -11154624 11154654 -11154621 23544 -23545 11154621 11154619 -11131075 16362 23059 11154620 -11154655 11154618 -11154618 32 -2200629761278 2200614732334 3874289 -11131073 -46608 11177680 -2200629860490 2200629860491 -46607 11177681 -11154622 -11154623 11131074 -23544 39906 -16363 -46394 46396 -46397 -208 46604 -46396 62758 -62758 416 -416 104 568928 -568928 -104 -412 62760 -11177501 62754 62756 -16364 16366 -62760 46395 11131109 -11131108 -46606 11131309 -11177660 -2200618598167 2200629775860 220 11177494 -11177494 -46151 11177033 -11177046 51796 -5396 -236 -46164 52004 -5632 -46127 51759 -46118 46354 -2200618614465 2200618568081 -16 -51761 51995 11125710 11125676 -11125440 11125475 -11125473 -237 238 -238 -51796 -2200618575278 2200618627313 -2200615029682 2200615029682 -2200615029681 2200615029677 11125203 -11125202 11125202 -11125207 -249 -51758 51751 249 -250 254 -288223780707065977 69 -72 8364714 -8364712 8364712 -8364713 8364713 8364711 -8364714 71 -70 8330934 612 33166 -33372 33373 -33386 4895 -4893 33384 288223780698701012 -2200618737332 2637 2200618734695 -51783 52025 -2200618650395 3604295 2200615046100 -288223780698734916 -5792474 5797470 -4758 30 1204 158160 -8490623 280281 -280352 2538587 -2258236 8050710 4996 -8055706 -4914 404 -8336357 2538589 5796848 -5796854 -2538569 421829 -421828 16 8331042 -8336356 2538584 -4398021408738 4398021408748 5797772 -8336352 -4397629419034 -27174 4397629446208 -4397629419058 -2072017 -387379019 389421106 4397637940112 -4397637940112 -4397637940111 -439581 -1602507 1602507 132452557 -132452557 132452561 4397502768709 -4397635221274 4397631491073 8491126 -8491126 -4397629419032 4397629419033 -4397631491074 4397634029656 -4397634029653 4397638378989 -6887918 6887918 4397638378992 -4397629888567 4397636779615 -6891049 -4397629419056 -29930 4397637940111 -4397637910182 29930 4397629448988 8491124 -154992 145512 -8504294 -442301 469475 4397629419035 8491123 -8491122 -4397629419036 4397636652831 -4397637122367 4397629888572 -4397629888572 469536 -442300 442325 -513638 71220 442418 -513637 513637 -442405 -71230 71222 -71223 71236 -71236 4397632498400 -6887915 7233795 -4397636652831 -469536 4397636310998 -4398025762002 389451004 4397629888507 -8491124 -4398018870038 4398018870039 -2072040 4397634029661 -4397634029652 1531253 4397636847735 -4397636776500 -1602491 2044893 -2044893 1686388 4397629804687 -4397631491076 2072040 -4397636981485 4397632286269 -4397634029651 -387378940 387378936 1658100 4397629832973 -5952543 4397631491071 6887916 -6887916 4397634029655 -4397634029655 4397634029654 -4397634029649 4397638378990 -4397629389451 4397636623246 -4397637047031 4397637047031 -4397637045392 130807922 4397501456718 85542 -4398021408504 389480469 -482862 145443 4397629726868 6892020 -4397636281471 4397636623247 -4695208 5792464 -5797772 -2538582 221798 5575052 -4397637724884 4397637720741 2538527 -2538590 8331097 4336 -81 -4397639826424 4397639822001 4504 -2439 -4397639824066 323 1742 -4397639824065 4397639826423 -4100 4100 -4397639826423 4397639822363 2538521 -2760385 -4397631491069 4397631491069 3366453 -827871 -421840 8331055 2538580 -4398021408452 4398021408462 -8336351 -4397629389452 4397629389451 -4397629959820 71232 -1593371 4397638715756 1257325 -4397639961375 1581665 -3112 -4397505846992 4397498959059 6891962 -4397636851782 -1510434 2024044 4397637122305 -4695211 4673318 -4397636601354 -393793 4397501546433 -4397632366442 438406 4397636601348 -4397506219751 -130926549 603926 67522 -67523 4397636155215 -6892269 -8491123 7211905 -4397636542375 4397629262946 -4397629114641 8402 -828156 596069 232084 -232087 4397636230449 -6892122 -4397631470254 -387397518 387397518 1687016 -1687016 4397634008839 -4398021406288 389478258 130381603 4397499007846 -4397629330469 -497386 564908 4397629262947 -4397629262947 4397636155216 -6892268 -4398027358893 4398021406356 -544946 130322623 132518599 4397497396250 9886724 150634 -313 -8504295 -4397631470251 -387397344 388996992 -2552 65327 -1662423 4397638755747 -4397637156099 -65327 65328 4397629807825 -4397631470249 -387397330 389604288 -519228 -623014 4397629388226 8491129 -4397629263300 4397629264420 8491128 -4397639961386 1712487 4397629757772 -4397629264419 2739 -93508 4397629355188 -2538585 -4397631491064 2226644 2740 13885038 4397615376642 -4397629264420 4397636152341 -6887921 4397639806385 -17673 -8504300 8481963 -8481963 -4397631470256 -389054787 4397629388223 -4397629388223 -4397637754429 4397629155454 8491131 -4397637618186 -2343201 2205838 -493352 -1712487 4397631470257 -4397629264418 -2226647 4397634029658 -4397631801892 -389604187 389677099 63227 -136139 -126144 -393787 592428 -73616 130256578 -130381597 -438412 497386 4397629262939 2206971 136135 4397631665750 -4397632404324 -389001705 387376381 -387376381 389001706 4397636753658 -4398025756189 4398027359396 -4397637618293 -4397631665750 -2363897 4397631491053 -4398018867435 389677326 4397636078038 4398025756189 -6887931 6887930 1603207 -4397634029647 4397634029647 -2538593 2538593 -2538594 -4397631491053 4397639982190 -8491137 -4349336 -4397634029646 4397639982191 -4397507491518 -40 -519867013 389083858 4397638274713 -4398027358571 387376380 132496671 -132496671 4397631491057 8491137 -8491136 -4397631491055 4397639982193 -4397507485523 -132496670 132496670 -4397631491056 2300947 8491138 -8491138 4397631491056 -4397637681246 4397629190109 -4397629355172 130360785 -130871358 -1625312 -4397639982193 -2300948 4397631491055 -4397631491057 -130195723 -165064 -2135883 1625312 4397629865744 4397507485523 4397629190108 -4397629190107 8491136 -165068 -2135879 -4397638356881 -165061 -510574 -165059 -2135888 -4397629355176 130360789 -165063 -2135884 4397637681246 -4397637846311 -2135882 -165067 -2135880 4397629190107 -4397637846306 -2135887 4397629865745 -8491135 2538598 -4397631928036 4397506305323 -4397636686920 -44619 4397629262929 -4397631470244 -123806 126569 13883507 4397617916735 4397638378982 -4397622265096 4397617915760 -4397634029645 4397638378981 -4397638378984 16112772 -16091969 -20803 132482826 -132462023 132462023 16057294 -13848662 13848661 -16057294 -116404729 116404729 2208632 -2208633 4397631470244 -4397615378275 -403489071 403490187 -14349396 14349396 -16093086 16093086 116368937 -130936526 130936526 4397501624596 -4397618029324 116404717 4397501624607 -16057295 -2616376 -4397631470243 -116404728 8491144 -4397627077071 -400281418 4398018867346 -4397629726555 -218193 4397629944747 1117 4397615377158 -4397631491047 1619080 130833478 4397501577089 -4397634029644 4397638378983 -4397638378983 -4397622266212 4397615378277 8491142 -8491142 -4397631491050 132452947 4397502770826 -3732724 2538599 132452943 -4397631491049 132452951 4397502770702 -4397635223663 132452555 -132452558 4397631491048 -1603207 -4397638378982 4397631491047 -4397617916735 -16112908 4397634029643 -4397634029643 4397639982186 6887935 -4397634029642 4397638378978 409561 -4758891 -130820009 438412 58974 -2228117 4397634029645 4397634029646 4397639982185 -4397631491045 132490667 4397505888313 409562 -4397638788542 7297495 -4397637081068 4397629783573 -4397499000418 -130783155 130783159 4397501321964 6169585 -8491140 4397631491045 -8491141 -4397631491046 4397631491046 -4397638355356 130841924 -130841924 130841928 4397502858440 -4397633700378 -389003089 4398018867298 -4397638274713 130783155 -4397507491554 -2321554 8491141 -4397639982187 4397639982187 -4397639982189 14664316 117804424 4397502858793 -1297897 -4397619365328 -14664313 4397631491042 -4397507491548 -132490639 132490644 4397501321981 -4397633812629 -8491139 132490639 -4397631491048 4397631491044 -4397625315335 4397616824195 -4397616826999 -14643247 14643247 285 4397616826715 4397616826999 -4397616823918 4397616823918 -4397616823915 117815677 -2616373 -4397616823914 -14646335 132462012 -117815677 14646336 4397616823913 -4397616826715 4397616826713 8491140 -4397616823913 4397616823914 -14646336 14648050 -14648050 -117813960 4397616822194 -4397616823910 -4397616823912 14646337 -14646338 14647870 4397616822380 -4397625315051 4397616823910 -4397499008235 -117814142 4397616822376 14671274 4397616798976 -4397625290114 4397616798973 -4397616818755 4397616818755 -4397499008238 -117810525 -5154 4397499008234 -4397616823916 4397625315053 -4397639961388 117790738 4397499008237 24939 -14671275 4397631470249 4397631470246 -4397616823906 4397616823907 -4397616823909 784 4397616823126 -117814874 4397616823111 14668898 -216 117793327 -132462012 14668686 4397616801563 -4397616823907 4397616823906 4397616823908 -4397631470252 14646957 163 117814891 -117814890 4397616823128 -4397616823290 4397616823289 -4397616823293 4397616823292 -14646959 4397631470250 -4397625314285 -145 -117814901 21571 4397616801567 -4397616801567 -14668682 14668685 -14668685 -117793326 4397616801560 -4397625314430 -14668686 -4397625292702 4397616801561 -4397616801813 4397616801812 -117793574 -21478 -4397616823289 4397616823286 -4397631470248 4397631470251 14646960 123 4397616823167 -117814924 4397616823161 -4397616801566 4397625292703 -4397499008237 -21725 -14646961 -4397616801561 4397616801559 8491139 -4397616801823 4397616801822 -117793583 4397616801820 14646961 21726 -259 117793584 -4397616823286 4397616823285 -4397616823167 4397616823169 -4397616823172 -14647081 -4397616823169 117814931 -117814929 -123 4397616823290 -4397616823164 4397616823287 4397616823164 -4397616823163 4397616823165 -4397616823165 -14647084 14647088 4397616823159 4397616823163 -117814927 -14647085 4397638767743 -7297495 -4397631470250 14646581 -14646581 14646580 -41332 2130 -14607378 14607378 -14607379 14607379 39201 4397631470248 -4397616823229 -14647017 117834130 -132481153 14647023 -3771 4397619365597 -4397634029641 4397631491043 -4397634029640 -4397616823227 -12440060 4397629263288 7297497 -7297497 -4397632816563 -386051693 -4397641307704 4397639704497 -6887934 4397638378979 -4397639704497 2867067 4397629949495 6887934 -4397636837429 -4397616821430 4397619360028 -4397634029639 4397631491041 -4397616823228 1798 4397616821430 -15993334 20787 4397631470258 -4397631470258 4397629263287 -1325517 -1520763 1520763 4397629127154 -4397629971612 105884 4397629865726 -4397498988879 -117834349 117834349 4397501155797 -2166920 6887932 -6887935 -4397632816561 4397632816562 -4397638358185 4397634008849 -4397634029638 4397631491039 7297498 -4397638767749 4397638358185 -4397638378978 1663169 -143736 143734 4397629827875 1663170 -143735 132470 94696 4397629744443 -4397631491043 4397638378977 -4397631491042 20791 4397638767750 -4397637225325 130938909 4397498988916 2166321 -2166320 -4397631491044 -1325519 1325519 2102824 -3428349 133827690 -4397632094744 -2888743 133827652 4397501155237 -2166323 -4397632816566 4397641307709 -8491144 -4397629927824 -4397632816586 4397632816586 8491143 -4397641307729 2988709 4397629827876 -4397632816585 4397641307729 4397629927824 -4397629971607 4397636859543 
Potential of Offsets elements: 28.0232 28.0232 28.0232 28.0232 28.0232 785.023 28.0232 28.0232 28.0232 28.0232 28.0232 28.0232 28.0232 28.0232 28.0232 28.0232 28.0232 28.0232 28.0232 28.0232 28.0232 28.0232 28.0232 28.0232 28.0232 28.0232 28.0232 28.0232 28.0232 42.0232 56.0232 28.0232 28.0232 28.0232 28.0232 28.0232 28.0232 28.0232 1568.02 28.0232 28.0232 28.0232 28.0232 28.0232 28.0232 28.0232 523.023 28.0232 28.0232 28.0232 28.0232 28.0232 28.0232 28.0232 28.0232 28.0232 28.0232 28.0232 28.0232 28.0232 28.0232 28.0232 28.0232 28.0232 28.0232 28.0232 28.0232 28.0232 28.0232 28.0232 28.0232 28.0232 28.0232 28.0232 28.0232 28.0232 28.0232 28.0232 28.0232 28.0232 28.0232 28.0232 28.0232 28.0232 28.0232 28.0232 28.0232 28.0232 28.0232 28.0232 28.0232 28.0232 28.0232 28.0232 28.0232 28.0232 28.0232 28.0232 28.0232 28.0232 1932.12 28.0232 184.023 1036.02 28.0232 28.0232 28.0232 28.0232 28.0232 28.0232 28.0232 28.0232 28.0232 28.0232 28.0232 28.0232 28.0232 28.0232 28.0232 28.0232 28.0232 28.0232 28.0232 28.0232 28.0232 28.0232 28.0232 28.0232 28.0232 28.0232 28.0232 28.0232 28.0232 28.0232 28.0232 28.0232 28.0232 28.0232 28.0232 28.0232 28.0232 28.0232 28.0232 28.0232 28.0232 28.0232 28.0232 28.0232 28.0232 28.0232 28.0232 28.0232 28.0232 28.0232 28.0232 28.0232 28.0232 28.0232 28.0232 28.0232 28.0232 28.0232 28.0232 28.0232 28.0232 28.0232 28.0232 28.0232 28.0232 84.0232 28.0232 28.0232 28.0232 28.0232 83.0232 28.0232 28.0232 28.0232 28.0232 28.0232 28.0232 28.0232 28.0232 28.0232 28.0232 28.0232 28.0232 28.0232 28.0232 28.0232 28.0232 28.0232 28.0232 28.0232 28.0232 95.0232 772.023 28.0232 28.0232 28.0232 28.0232 28.0232 28.0232 28.0232 28.0232 28.0232 28.0232 28.0232 28.0232 28.0232 28.0232 28.0232 28.0232 410.023 28.0232 28.0232 28.0232 28.0232 28.0232 28.0232 28.0232 28.0232 28.0232 28.0232 28.0232 28.0232 28.0232 769.023 28.0232 28.0232 28.0232 28.0232 1564.02 28.0232 28.0232 28.0232 28.0232 28.0232 28.0232 28.0232 28.0232 28.0232 28.0232 28.0232 28.0232 28.0232 28.0232 28.0232 28.0232 28.0232 28.0232 28.0232 113.023 28.0232 28.0232 196.023 28.0232 28.0232 28.0232 28.0232 28.0232 28.0232 28.0232 28.0232 28.0232 28.0232 28.0232 28.0232 28.0232 28.0232 28.0232 28.0232 28.0232 28.0232 28.0232 269.023 28.0232 28.0232 28.0232 28.0232 28.0232 28.0232 28.0232 28.0232 28.0232 28.0232 28.0232 28.0232 28.0232 28.0232 28.0232 28.0232 28.0232 28.0232 28.0232 28.0232 28.0232 28.0232 28.0232 28.0232 28.0232 28.0232 28.0232 28.0232 28.0232 28.0232 28.0232 28.0232 28.0232 28.0232 1875.89 345.023 28.0232 28.0232 28.0232 662.023 1473.02 28.0232 28.0232 28.0232 28.0232 28.0232 28.0232 28.0232 28.0232 28.0232 28.0232 382.023 370.023 181.023 28.0232 28.0232 28.0232 28.0232 28.0232 28.0232 28.0232 28.0232 28.0232 34.0232 28.0232 28.0232 28.0232 33.0232 28.0232 42.0232 51.0232 28.0232 28.0232 31.0232 28.0232 28.0232 28.0232 28.0232 28.0232 28.0232 28.0232 28.0232 28.0232 28.0232 28.0232 28.0232 28.0232 28.0232 28.0232 28.0232 28.0232 28.0232 28.0232 28.0232 28.0232 28.0232 28.0232 28.0232 28.0232 28.0232 28.0232 28.0232 28.0232 28.0232 28.0232 28.0232 72.0232 73.0232 28.0232 28.0232 28.0232 28.0232 28.0232 28.0232 28.0232 28.0232 32.0232 28.0232 28.0232 28.0232 28.0232 28.0232 28.0232 28.0232 28.0232 28.0232 28.0232 28.0232 28.0232 28.0232 28.0232 28.0232 28.0232 28.0232 28.0232 28.0232 28.0232 28.0232 28.0232 28.0232 28.0232 28.0232 28.0232 28.0232 28.0232 28.0232 28.0232 28.0232 28.0232 28.0232 28.0232 28.0232 28.0232 28.0232 28.0232 28.0232 28.0232 28.0232 28.0232 28.0232 28.0232 28.0232 28.0232 28.0232 28.0232 28.0232 28.0232 28.0232 28.0232 28.0232 28.0232 28.0232 28.0232 28.0232 28.0232 28.0232 28.0232 28.0232 28.0232 28.0232 28.0232 28.0232 28.0232 28.0232 28.0232 28.0232 28.0232 28.0232 28.0232 28.0232 28.0232 28.0232 28.0232 28.0232 28.0232 28.0232 31.0232 28.0232 28.0232 28.0232 28.0232 28.0232 28.0232 28.0232 28.0232 28.0232 28.0232 28.0232 28.0232 28.0232 28.0232 28.0232 28.0232 28.0232 28.0232 28.0232 28.0232 28.0232 28.0232 28.0232 28.0232 28.0232 28.0232 28.0232 28.0232 76.0232 28.0232 28.0232 28.0232 28.0232 28.0232 28.0232 28.0232 28.0232 28.0232 28.0232 28.0232 28.0232 28.0232 28.0232 28.0232 28.0232 28.0232 28.0232 28.0232 28.0232 28.0232 28.0232 28.0232 28.0232 28.0232 28.0232 28.0232 28.0232 28.0232 28.0232 28.0232 28.0232 28.0232 28.0232 28.0232 28.0232 28.0232 28.0232 28.0232 28.0232 28.0232 28.0232 28.0232 28.0232 28.0232 28.0232 28.0232 28.0232 28.0232 28.0232 28.0232 28.0232 28.0232 28.0232 28.0232 172.023 46.0232 28.0232 28.0232 28.0232 28.0232 28.0232 28.0232 28.0232 28.0232 28.0232 28.0232 28.0232 28.0232 28.0232 28.0232 28.0232 28.0232 28.0232 28.0232 28.0232 28.0232 28.0232 28.0232 28.0232 28.0232 28.0232 28.0232 28.0232 28.0232 28.0232 28.0232 28.0232 28.0232 28.0232 28.0232 28.0232 28.0232 28.0232 28.0232 28.0232 28.0232 28.0232 28.0232 28.0232 28.0232 28.0232 28.0232 28.0232 28.0232 28.0232 28.0232 460.023 28.0232 28.0232 28.0232 28.0232 28.0232 28.0232 28.0232 28.0232 28.0232 28.0232 28.0232 28.0232 28.0232 28.0232 28.0232 28.0232 28.0232 28.0232 28.0232 28.0232 28.0232 352.023 28.0232 28.0232 28.0232 28.0232 28.0232 28.0232 28.0232 28.0232 28.0232 28.0232 28.0232 28.0232 28.0232 28.0232 108.023 28.0232 28.0232 28.0232 28.0232 28.0232 28.0232 28.0232 28.0232 28.0232 28.0232 28.0232 28.0232 524.023 28.0232 28.0232 64.0232 28.0232 28.0232 215.023 28.0232 28.0232 28.0232 28.0232 28.0232 28.0232 28.0232 28.0232 28.0232 28.0232 28.0232 28.0232 28.0232 28.0232 28.0232 28.0232 28.0232 28.0232 28.0232 28.0232 28.0232 28.0232 28.0232 28.0232 28.0232 28.0232 28.0232 28.0232 28.0232 28.0232 28.0232 28.0232 28.0232 28.0232 28.0232 28.0232 28.0232 28.0232 28.0232 28.0232 28.0232 28.0232 28.0232 28.0232 28.0232 28.0232 28.0232 28.0232 28.0232 28.0232 28.0232 28.0232 28.0232 28.0232 28.0232 28.0232 28.0232 28.0232 28.0232 28.0232 28.0232 28.0232 28.0232 28.0232 28.0232 28.0232 28.0232 28.0232 28.0232 28.0232 28.0232 28.0232 28.0232 28.0232 28.0232 28.0232 28.0232 28.0232 28.0232 28.0232 28.0232 28.0232 28.0232 28.0232 28.0232 28.0232 28.0232 28.0232 28.0232 28.0232 28.0232 28.0232 28.0232 28.0232 28.0232 28.0232 28.0232 28.0232 28.0232 28.0232 172.023 172.023 149.023 28.0232 28.0232 28.0232 28.0232 28.0232 137.023 28.0232 28.0232 28.0232 28.0232 28.0232 28.0232 28.0232 28.0232 28.0232 28.0232 28.0232 28.0232 28.0232 28.0232 28.0232 28.0232 28.0232 28.0232 28.0232 28.0232 28.0232 28.0232 28.0232 28.0232 28.0232 28.0232 28.0232 28.0232 28.0232 28.0232 28.0232 28.0232 28.0232 28.0232 28.0232 28.0232 100.023 28.0232 28.0232 28.0232 28.0232 71.0232 28.0232 28.0232 79.0232 28.0232 28.0232 28.0232 28.0232 28.0232 28.0232 28.0232 28.0232 28.0232 28.0232 28.0232 28.0232 28.0232 28.0232 28.0232 28.0232 28.0232 109.023 28.0232 28.0232 28.0232 28.0232 28.0232 28.0232 28.0232 28.0232 28.0232 28.0232 28.0232 28.0232 28.0232 28.0232 28.0232 28.0232 28.0232 28.0232 28.0232 28.0232 28.0232 28.0232 28.0232 28.0232 28.0232 28.0232 28.0232 28.0232 28.0232 28.0232 28.0232 28.0232 28.0232 28.0232 28.0232 28.0232 28.0232 28.0232 32.0232 28.0232 28.0232 28.0232 28.0232 28.0232 28.0232 28.0232 28.0232 38.0232 32.0232 28.0232 28.0232 28.0232 28.0232 28.0232 28.0232 28.0232 28.0232 28.0232 28.0232 28.0232 28.0232 28.0232 28.0232 28.0232 28.0232 28.0232 28.0232 28.0232 28.0232 28.0232 28.0232 28.0232 28.0232 28.0232 28.0232 28.0232 28.0232 28.0232 28.0232 28.0232 28.0232 28.0232 28.0232 28.0232 28.0232 28.0232 28.0232 28.0232 28.0232 28.0232 28.0232 28.0232 28.0232 28.0232 28.0232 28.0232 28.0232 28.0232 28.0232 28.0232 28.0232 28.0232 28.0232 28.0232 28.0232 28.0232 28.0232 28.0232 28.0232 28.0232 28.0232 28.0232 28.0232 28.0232 28.0232 28.0232 28.0232 28.0232 28.0232 28.0232 28.0232 28.0232 28.0232 28.0232 28.0232 28.0232 28.0232 28.0232 28.0232 28.0232 28.0232 28.0232 47.0232 28.0232 28.0232 28.0232 28.0232 28.0232 28.0232 28.0232 28.0232 28.0232 28.0232 28.0232 28.0232 28.0232 28.0232 28.0232 28.0232 28.0232 28.0232 28.0232 28.0232 28.0232 28.0232 28.0232 28.0232 28.0232 28.0232 28.0232 28.0232 28.0232 28.0232 28.0232 28.0232 28.0232 28.0232 28.0232 28.0232 28.0232 28.0232 28.0232 28.0232 28.0232 28.0232 28.0232 28.0232 28.0232 28.0232 28.0232 28.0232 28.0232 28.0232 28.0232 28.0232 28.0232 172.023 149.023 149.023 172.023 28.0232 28.0232 28.0232 28.0232 28.0232 28.0232 28.0232 28.0232 28.0232 28.0232 28.0232 28.0232 28.0232 28.0232 28.0232 28.0232 28.0232 28.0232 28.0232 28.0232 28.0232 28.0232 28.0232 28.0232 28.0232 28.0232 28.0232 28.0232 28.0232 28.0232 28.0232 28.0232 28.0232 28.0232 28.0232 28.0232 28.0232 28.0232 28.0232 28.0232 28.0232 28.0232 28.0232 28.0232 28.0232 28.0232 28.0232 28.0232 28.0232 28.0232 37.0232 29.0232 32.0232 28.0232 28.0232 32.0232 28.0232 28.0232 28.0232 28.0232 28.0232 28.0232 28.0232 28.0232 28.0232 28.0232 28.0232 28.0232 28.0232 28.0232 28.0232 28.0232 28.0232 28.0232 36.0232 32.0232 28.0232 28.0232 28.0232 28.0232 28.0232 28.0232 28.0232 28.0232 28.0232 28.0232 28.0232 28.0232 28.0232 28.0232 28.0232 28.0232 28.0232 28.0232 28.0232 28.0232 28.0232 28.0232 28.0232 28.0232 28.0232 28.0232 28.0232 28.0232 172.023 172.023 28.0232 28.0232 28.0232 28.0232 28.0232 28.0232 28.0232 28.0232 28.0232 28.0232 28.0232 28.0232 28.0232 28.0232 28.0232 28.0232 28.0232 28.0232 28.0232 28.0232 28.0232 28.0232 28.0232 28.0232 28.0232 28.0232 28.0232 28.0232 28.0232 28.0232 28.0232 28.0232 28.0232 28.0232 28.0232 28.0232 28.0232 28.0232 28.0232 28.0232 28.0232 28.0232 28.0232 28.0232 28.0232 28.0232 28.0232 28.0232 28.0232 28.0232 28.0232 28.0232 28.0232 61.0232 28.0232 28.0232 178.023 36.0232 28.0232 28.0232 28.0232 28.0232 28.0232 28.0232 28.0232 28.0232 28.0232 28.0232 28.0232 28.0232 28.0232 28.0232 28.0232 28.0232 28.0232 28.0232 28.0232 28.0232 28.0232 28.0232 28.0232 28.0232 28.0232 28.0232 28.0232 175.023 28.0232 28.0232 28.0232 28.0232 28.0232 28.0232 28.0232 28.0232 28.0232 28.0232 28.0232 28.0232 28.0232 28.0232 96.0232 268.023 32.0232 121.023 157.023 28.0232 28.0232 28.0232 28.0232 28.0232 28.0232 28.0232 28.0232 28.0232 28.0232 28.0232 28.0232 28.0232 28.0232 28.0232 28.0232 28.0232 28.0232 28.0232 28.0232 28.0232 28.0232 28.0232 28.0232 28.0232 28.0232 28.0232 47.0232 28.0232 28.0232 28.0232 28.0232 28.0232 28.0232 28.0232 28.0232 28.0232 28.0232 28.0232 28.0232 28.0232 28.0232 28.0232 28.0232 52.0232 98.0232 29.0232 28.0232 28.0232 28.0232 28.0232 28.0232 28.0232 28.0232 28.0232 28.0232 28.0232 28.0232 28.0232 28.0232 28.0232 28.0232 28.0232 28.0232 28.0232 28.0232 28.0232 31.0232 28.0232 28.0232 28.0232 28.0232 28.0232 28.0232 28.0232 28.0232 35.0232 28.0232 28.0232 28.0232 28.0232 28.0232 28.0232 28.0232 28.0232 28.0232 28.0232 28.0232 28.0232 28.0232 28.0232 28.0232 28.0232 42.0232 28.0232 30.0232 28.0232 28.0232 70.0232 28.0232 28.0232 28.0232 28.0232 28.0232 28.0232 28.0232 28.0232 28.0232 28.0232 28.0232 28.0232 28.0232 28.0232 28.0232 28.0232 28.0232 28.0232 28.0232 28.0232 28.0232 28.0232 28.0232 28.0232 28.0232 28.0232 28.0232 28.0232 28.0232 28.0232 28.0232 28.0232 28.0232 28.0232 55.0232 28.0232 28.0232 64.0232 64.0232 100.023 28.0232 60.0232 32.0232 28.0232 28.0232 28.0232 28.0232 28.0232 28.0232 28.0232 28.0232 28.0232 28.0232 28.0232 28.0232 28.0232 28.0232 28.0232 28.0232 28.0232 28.0232 28.0232 28.0232 28.0232 28.0232 28.0232 28.0232 28.0232 28.0232 28.0232 28.0232 28.0232 28.0232 28.0232 139.023 28.0232 37.0232 28.0232 28.0232 28.0232 28.0232 28.0232 28.0232 28.0232 28.0232 28.0232 28.0232 28.0232 28.0232 28.0232 28.0232 28.0232 28.0232 28.0232 1163.02 28.0232 28.0232 28.0232 28.0232 28.0232 28.0232 28.0232 28.0232 28.0232 28.0232 28.0232 28.0232 28.0232 28.0232 28.0232 28.0232 28.0232 28.0232 28.0232 28.0232 28.0232 28.0232 28.0232 28.0232 28.0232 28.0232 28.0232 28.0232 28.0232 28.0232 28.0232 28.0232 28.0232 28.0232 28.0232 28.0232 28.0232 28.0232 34.0232 28.0232 28.0232 28.0232 28.0232 28.0232 28.0232 28.0232 28.0232 28.0232 30.0232 28.0232 28.0232 28.0232 28.0232 28.0232 28.0232 28.0232 28.0232 28.0232 28.0232 28.0232 28.0232 28.0232 28.0232 28.0232 28.0232 50.0232 28.0232 28.0232 44.0232 28.0232 36.0232 28.0232 28.0232 28.0232 28.0232 28.0232 28.0232 28.0232 28.0232 28.0232 28.0232 28.0232 28.0232 28.0232 28.0232 28.0232 28.0232 28.0232 28.0232 28.0232 28.0232 28.0232 28.0232 28.0232 28.0232 28.0232 28.0232 28.0232 28.0232 28.0232 28.0232 28.0232 28.0232 28.0232 28.0232 28.0232 28.0232 28.0232 28.0232 28.0232 28.0232 28.0232 28.0232 28.0232 28.0232 28.0232 28.0232 28.0232 28.0232 28.0232 28.0232 28.0232 28.0232 28.0232 28.0232 28.0232 28.0232 28.0232 28.0232 28.0232 28.0232 28.0232 28.0232 28.0232 28.0232 28.0232 28.0232 28.0232 28.0232 28.0232 28.0232 28.0232 28.0232 28.0232 28.0232 28.0232 28.0232 28.0232 28.0232 28.0232 28.0232 28.0232 28.0232 28.0232 34.0232 28.0232 28.0232 28.0232 28.0232 28.0232 28.0232 28.0232 28.0232 28.0232 28.0232 28.0232 28.0232 28.0232 28.0232 28.0232 28.0232 28.0232 28.0232 28.0232 28.0232 28.0232 28.0232 28.0232 28.0232 28.0232 28.0232 28.0232 28.0232 28.0232 28.0232 28.0232 28.0232 28.0232 28.0232 28.0232 28.0232 28.0232 28.0232 28.0232 28.0232 28.0232 28.0232 28.0232 28.0232 28.0232 28.0232 28.0232 28.0232 28.0232 28.0232 28.0232 28.0232 28.0232 28.0232 28.0232 28.0232 28.0232 28.0232 28.0232 28.0232 28.0232 28.0232 28.0232 28.0232 28.0232 28.0232 28.0232 28.0232 28.0232 28.0232 28.0232 28.0232 28.0232 28.0232 28.0232 28.0232 28.0232 28.0232 28.0232 28.0232 28.0232 28.0232 28.0232 172.023 28.0232 28.0232 28.0232 28.0232 28.0232 28.0232 28.0232 28.0232 28.0232 28.0232 28.0232 28.0232 28.0232 28.0232 28.0232 28.0232 28.0232 28.0232 28.0232 28.0232 28.0232 28.0232 28.0232 28.0232 28.0232 28.0232 28.0232 28.0232 28.0232 28.0232 28.0232 28.0232 28.0232 28.0232 28.0232 28.0232 28.0232 28.0232 28.0232 28.0232 28.0232 28.0232 28.0232 28.0232 28.0232 28.0232 28.0232 28.0232 28.0232 28.0232 28.0232 28.0232 28.0232 28.0232 28.0232 28.0232 28.0232 28.0232 28.0232 28.0232 28.0232 28.0232 28.0232 28.0232 28.0232 28.0232 28.0232 28.0232 28.0232 28.0232 28.0232 28.0232 28.0232 28.0232 28.0232 28.0232 28.0232 28.0232 28.0232 28.0232 28.0232 28.0232 28.0232 28.0232 28.0232 28.0232 28.0232 28.0232 28.0232 28.0232 28.0232 28.0232 28.0232 28.0232 28.0232 28.0232 28.0232 28.0232 28.0232 28.0232 28.0232 28.0232 28.0232 28.0232 28.0232 28.0232 28.0232 108.023 28.0232 28.0232 28.0232 28.0232 28.0232 28.0232 28.0232 28.0232 28.0232 28.0232 28.0232 28.0232 28.0232 28.0232 28.0232 28.0232 28.0232 28.0232 28.0232 28.0232 28.0232 28.0232 28.0232 28.0232 28.0232 28.0232 28.0232 28.0232 28.0232 28.0232 28.0232 28.0232 28.0232 28.0232 28.0232 28.0232 28.0232 28.0232 28.0232 28.0232 28.0232 28.0232 28.0232 28.0232 28.0232 28.0232 28.0232 28.0232 28.0232 28.0232 28.0232 28.0232 28.0232 28.0232 28.0232 28.0232 28.0232 28.0232 28.0232 28.0232 28.0232 28.0232 28.0232 28.0232 28.0232 28.0232 28.0232 28.0232 28.0232 28.0232 28.0232 28.0232 28.0232 28.0232 28.0232 28.0232 28.0232 28.0232 28.0232 28.0232 28.0232 28.0232 28.0232 28.0232 28.0232 28.0232 28.0232 28.0232 28.0232 28.0232 28.0232 28.0232 28.0232 28.0232 28.0232 28.0232 28.0232 28.0232 28.0232 28.0232 28.0232 28.0232 28.0232 28.0232 28.0232 28.0232 28.0232 28.0232 28.0232 28.0232 28.0232 28.0232 28.0232 28.0232 28.0232 28.0232 28.0232 28.0232 28.0232 28.0232 28.0232 28.0232 28.0232 28.0232 28.0232 28.0232 28.0232 28.0232 28.0232 28.0232 28.0232 28.0232 28.0232 28.0232 28.0232 28.0232 28.0232 28.0232 28.0232 28.0232 28.0232 28.0232 28.0232 28.0232 28.0232 28.0232 28.0232 28.0232 28.0232 28.0232 28.0232 28.0232 28.0232 28.0232 28.0232 28.0232 28.0232 28.0232 28.0232 28.0232 28.0232 28.0232 28.0232 28.0232 28.0232 28.0232 28.0232 28.0232 28.0232 28.0232 28.0232 28.0232 28.0232 28.0232 28.0232 28.0232 28.0232 28.0232 28.0232 28.0232 28.0232 28.0232 28.0232 28.0232 28.0232 28.0232 28.0232 28.0232 28.0232 28.0232 28.0232 28.0232 28.0232 28.0232 28.0232 28.0232 28.0232 28.0232 28.0232 28.0232 28.0232 28.0232 28.0232 28.0232 28.0232 28.0232 28.0232 28.0232 28.0232 28.0232 28.0232 28.0232 28.0232 28.0232 28.0232 28.0232 28.0232 28.0232 28.0232 28.0232 28.0232 28.0232 28.0232 28.0232 68.0232 28.0232 28.0232 28.0232 28.0232 28.0232 28.0232 28.0232 28.0232 28.0232 28.0232 28.0232 28.0232 28.0232 28.0232 28.0232 28.0232 28.0232 28.0232 28.0232 28.0232 28.0232 28.0232 28.0232 28.0232 28.0232 28.0232 28.0232 28.0232 28.0232 28.0232 28.0232 28.0232 28.0232 28.0232 28.0232 28.0232 28.0232 28.0232 28.0232 28.0232 28.0232 28.0232 28.0232 28.0232 28.0232 28.0232 28.0232 28.0232 28.0232 28.0232 28.0232 28.0232 28.0232 28.0232 28.0232 28.0232 28.0232 28.0232 28.0232 28.0232 28.0232 28.0232 28.0232 28.0232 28.0232 28.0232 28.0232 28.0232 28.0232 28.0232 28.0232 28.0232 28.0232 28.0232 28.0232 28.0232 36.0232 28.0232 28.0232 28.0232 28.0232 28.0232 28.0232 28.0232 28.0232 28.0232 28.0232 28.0232 28.0232 28.0232 28.0232 28.0232 28.0232 28.0232 28.0232 28.0232 28.0232 28.0232 28.0232 28.0232 28.0232 28.0232 28.0232 28.0232 28.0232 28.0232 28.0232 28.0232 28.0232 28.0232 28.0232 28.0232 28.0232 28.0232 28.0232 28.0232 28.0232 28.0232 28.0232 28.0232 28.0232 28.0232 28.0232 28.0232 28.0232 28.0232 28.0232 28.0232 28.0232 28.0232 28.0232 28.0232 28.0232 28.0232 28.0232 28.0232 28.0232 28.0232 28.0232 28.0232 28.0232 28.0232 28.0232 28.0232 28.0232 28.0232 28.0232 28.0232 28.0232 28.0232 28.0232 28.0232 28.0232 28.0232 28.0232 28.0232 28.0232 28.0232 28.0232 28.0232 28.0232 28.0232 28.0232 28.0232 28.0232 28.0232 28.0232 28.0232 28.0232 28.0232 28.0232 28.0232 28.0232 28.0232 28.0232 28.0232 28.0232 28.0232 28.0232 28.0232 28.0232 28.0232 28.0232 28.0232 28.0232 28.0232 28.0232 28.0232 28.0232 28.0232 28.0232 28.0232 28.0232 28.0232 28.0232 28.0232 28.0232 28.0232 28.0232 28.0232 28.0232 28.0232 28.0232 28.0232 28.0232 28.0232 28.0232 28.0232 28.0232 28.0232 28.0232 28.0232 28.0232 28.0232 28.0232 28.0232 28.0232 28.0232 28.0232 28.0232 28.0232 28.0232 28.0232 28.0232 28.0232 28.0232 28.0232 28.0232 28.0232 28.0232 28.0232 28.0232 28.0232 28.0232 28.0232 28.0232 28.0232 28.0232 28.0232 28.0232 28.0232 28.0232 28.0232 28.0232 28.0232 28.0232 28.0232 28.0232 28.0232 28.0232 28.0232 28.0232 28.0232 28.0232 28.0232 28.0232 28.0232 28.0232 28.0232 28.0232 28.0232 28.0232 28.0232 
rewards of Offsets elements: 0 0 0 0 0 757 0 0 0 0 0 0 0 0 0 0 0 0 0 0 0 0 0 0 0 0 0 0 0 14 28 0 0 0 0 0 0 0 1540 0 0 0 0 0 0 0 495 0 0 0 0 0 0 0 0 0 0 0 0 0 0 0 0 0 0 0 0 0 0 0 0 0 0 0 0 0 0 0 0 0 0 0 0 0 0 0 0 0 0 0 0 0 0 0 0 0 0 0 0 0 1932 0 156 1008 0 0 0 0 0 0 0 0 0 0 0 0 0 0 0 0 0 0 0 0 0 0 0 0 0 0 0 0 0 0 0 0 0 0 0 0 0 0 0 0 0 0 0 0 0 0 0 0 0 0 0 0 0 0 0 0 0 0 0 0 0 0 0 0 0 56 0 0 0 0 55 0 0 0 0 0 0 0 0 0 0 0 0 0 0 0 0 0 0 0 0 67 744 0 0 0 0 0 0 0 0 0 0 0 0 0 0 0 0 382 0 0 0 0 0 0 0 0 0 0 0 0 0 741 0 0 0 0 1536 0 0 0 0 0 0 0 0 0 0 0 0 0 0 0 0 0 0 0 85 0 0 168 0 0 0 0 0 0 0 0 0 0 0 0 0 0 0 0 0 0 0 241 0 0 0 0 0 0 0 0 0 0 0 0 0 0 0 0 0 0 0 0 0 0 0 0 0 0 0 0 0 0 0 0 0 0 1875 317 0 0 0 634 1445 0 0 0 0 0 0 0 0 0 0 354 342 153 0 0 0 0 0 0 0 0 0 6 0 0 0 5 0 14 23 0 0 3 0 0 0 0 0 0 0 0 0 0 0 0 0 0 0 0 0 0 0 0 0 0 0 0 0 0 0 0 0 0 0 0 44 45 0 0 0 0 0 0 0 0 4 0 0 0 0 0 0 0 0 0 0 0 0 0 0 0 0 0 0 0 0 0 0 0 0 0 0 0 0 0 0 0 0 0 0 0 0 0 0 0 0 0 0 0 0 0 0 0 0 0 0 0 0 0 0 0 0 0 0 0 0 0 0 0 0 0 0 0 0 0 0 0 0 0 0 0 0 0 0 0 3 0 0 0 0 0 0 0 0 0 0 0 0 0 0 0 0 0 0 0 0 0 0 0 0 0 0 0 0 48 0 0 0 0 0 0 0 0 0 0 0 0 0 0 0 0 0 0 0 0 0 0 0 0 0 0 0 0 0 0 0 0 0 0 0 0 0 0 0 0 0 0 0 0 0 0 0 0 0 0 0 0 0 0 0 144 18 0 0 0 0 0 0 0 0 0 0 0 0 0 0 0 0 0 0 0 0 0 0 0 0 0 0 0 0 0 0 0 0 0 0 0 0 0 0 0 0 0 0 0 0 0 0 0 0 0 0 432 0 0 0 0 0 0 0 0 0 0 0 0 0 0 0 0 0 0 0 0 0 324 0 0 0 0 0 0 0 0 0 0 0 0 0 0 80 0 0 0 0 0 0 0 0 0 0 0 0 496 0 0 36 0 0 187 0 0 0 0 0 0 0 0 0 0 0 0 0 0 0 0 0 0 0 0 0 0 0 0 0 0 0 0 0 0 0 0 0 0 0 0 0 0 0 0 0 0 0 0 0 0 0 0 0 0 0 0 0 0 0 0 0 0 0 0 0 0 0 0 0 0 0 0 0 0 0 0 0 0 0 0 0 0 0 0 0 0 0 0 0 0 0 0 0 0 0 0 0 0 0 0 0 0 0 0 144 144 121 0 0 0 0 0 109 0 0 0 0 0 0 0 0 0 0 0 0 0 0 0 0 0 0 0 0 0 0 0 0 0 0 0 0 0 0 0 0 0 0 0 0 72 0 0 0 0 43 0 0 51 0 0 0 0 0 0 0 0 0 0 0 0 0 0 0 0 0 81 0 0 0 0 0 0 0 0 0 0 0 0 0 0 0 0 0 0 0 0 0 0 0 0 0 0 0 0 0 0 0 0 0 0 0 0 0 0 4 0 0 0 0 0 0 0 0 10 4 0 0 0 0 0 0 0 0 0 0 0 0 0 0 0 0 0 0 0 0 0 0 0 0 0 0 0 0 0 0 0 0 0 0 0 0 0 0 0 0 0 0 0 0 0 0 0 0 0 0 0 0 0 0 0 0 0 0 0 0 0 0 0 0 0 0 0 0 0 0 0 0 0 0 0 0 0 0 0 0 0 0 0 19 0 0 0 0 0 0 0 0 0 0 0 0 0 0 0 0 0 0 0 0 0 0 0 0 0 0 0 0 0 0 0 0 0 0 0 0 0 0 0 0 0 0 0 0 0 0 0 0 0 0 0 0 0 144 121 121 144 0 0 0 0 0 0 0 0 0 0 0 0 0 0 0 0 0 0 0 0 0 0 0 0 0 0 0 0 0 0 0 0 0 0 0 0 0 0 0 0 0 0 0 0 0 0 0 0 0 0 9 1 4 0 0 4 0 0 0 0 0 0 0 0 0 0 0 0 0 0 0 0 0 0 8 4 0 0 0 0 0 0 0 0 0 0 0 0 0 0 0 0 0 0 0 0 0 0 0 0 0 0 0 0 144 144 0 0 0 0 0 0 0 0 0 0 0 0 0 0 0 0 0 0 0 0 0 0 0 0 0 0 0 0 0 0 0 0 0 0 0 0 0 0 0 0 0 0 0 0 0 0 0 0 0 0 0 0 0 33 0 0 150 8 0 0 0 0 0 0 0 0 0 0 0 0 0 0 0 0 0 0 0 0 0 0 0 0 0 0 0 147 0 0 0 0 0 0 0 0 0 0 0 0 0 0 68 240 4 93 129 0 0 0 0 0 0 0 0 0 0 0 0 0 0 0 0 0 0 0 0 0 0 0 0 0 0 0 19 0 0 0 0 0 0 0 0 0 0 0 0 0 0 0 0 24 70 1 0 0 0 0 0 0 0 0 0 0 0 0 0 0 0 0 0 0 0 0 3 0 0 0 0 0 0 0 0 7 0 0 0 0 0 0 0 0 0 0 0 0 0 0 0 0 14 0 2 0 0 42 0 0 0 0 0 0 0 0 0 0 0 0 0 0 0 0 0 0 0 0 0 0 0 0 0 0 0 0 0 0 0 0 0 0 27 0 0 36 36 72 0 32 4 0 0 0 0 0 0 0 0 0 0 0 0 0 0 0 0 0 0 0 0 0 0 0 0 0 0 0 0 0 0 0 111 0 9 0 0 0 0 0 0 0 0 0 0 0 0 0 0 0 0 0 1135 0 0 0 0 0 0 0 0 0 0 0 0 0 0 0 0 0 0 0 0 0 0 0 0 0 0 0 0 0 0 0 0 0 0 0 0 0 0 6 0 0 0 0 0 0 0 0 0 2 0 0 0 0 0 0 0 0 0 0 0 0 0 0 0 0 22 0 0 16 0 8 0 0 0 0 0 0 0 0 0 0 0 0 0 0 0 0 0 0 0 0 0 0 0 0 0 0 0 0 0 0 0 0 0 0 0 0 0 0 0 0 0 0 0 0 0 0 0 0 0 0 0 0 0 0 0 0 0 0 0 0 0 0 0 0 0 0 0 0 0 0 0 0 0 0 0 0 0 0 0 0 0 0 0 6 0 0 0 0 0 0 0 0 0 0 0 0 0 0 0 0 0 0 0 0 0 0 0 0 0 0 0 0 0 0 0 0 0 0 0 0 0 0 0 0 0 0 0 0 0 0 0 0 0 0 0 0 0 0 0 0 0 0 0 0 0 0 0 0 0 0 0 0 0 0 0 0 0 0 0 0 0 0 0 0 0 0 0 144 0 0 0 0 0 0 0 0 0 0 0 0 0 0 0 0 0 0 0 0 0 0 0 0 0 0 0 0 0 0 0 0 0 0 0 0 0 0 0 0 0 0 0 0 0 0 0 0 0 0 0 0 0 0 0 0 0 0 0 0 0 0 0 0 0 0 0 0 0 0 0 0 0 0 0 0 0 0 0 0 0 0 0 0 0 0 0 0 0 0 0 0 0 0 0 0 0 0 0 0 0 0 0 0 0 0 0 80 0 0 0 0 0 0 0 0 0 0 0 0 0 0 0 0 0 0 0 0 0 0 0 0 0 0 0 0 0 0 0 0 0 0 0 0 0 0 0 0 0 0 0 0 0 0 0 0 0 0 0 0 0 0 0 0 0 0 0 0 0 0 0 0 0 0 0 0 0 0 0 0 0 0 0 0 0 0 0 0 0 0 0 0 0 0 0 0 0 0 0 0 0 0 0 0 0 0 0 0 0 0 0 0 0 0 0 0 0 0 0 0 0 0 0 0 0 0 0 0 0 0 0 0 0 0 0 0 0 0 0 0 0 0 0 0 0 0 0 0 0 0 0 0 0 0 0 0 0 0 0 0 0 0 0 0 0 0 0 0 0 0 0 0 0 0 0 0 0 0 0 0 0 0 0 0 0 0 0 0 0 0 0 0 0 0 0 0 0 0 0 0 0 0 0 0 0 0 0 0 0 0 0 0 0 0 0 0 0 0 0 0 0 0 0 0 0 0 0 0 0 0 0 0 40 0 0 0 0 0 0 0 0 0 0 0 0 0 0 0 0 0 0 0 0 0 0 0 0 0 0 0 0 0 0 0 0 0 0 0 0 0 0 0 0 0 0 0 0 0 0 0 0 0 0 0 0 0 0 0 0 0 0 0 0 0 0 0 0 0 0 0 0 0 0 0 0 0 0 0 0 8 0 0 0 0 0 0 0 0 0 0 0 0 0 0 0 0 0 0 0 0 0 0 0 0 0 0 0 0 0 0 0 0 0 0 0 0 0 0 0 0 0 0 0 0 0 0 0 0 0 0 0 0 0 0 0 0 0 0 0 0 0 0 0 0 0 0 0 0 0 0 0 0 0 0 0 0 0 0 0 0 0 0 0 0 0 0 0 0 0 0 0 0 0 0 0 0 0 0 0 0 0 0 0 0 0 0 0 0 0 0 0 0 0 0 0 0 0 0 0 0 0 0 0 0 0 0 0 0 0 0 0 0 0 0 0 0 0 0 0 0 0 0 0 0 0 0 0 0 0 0 0 0 0 0 0 0 0 0 0 0 0 0 0 0 0 0 0 0 0 0 0 0 0 0 0 0 0 0 0 0 0 0 0 0 0 0 Printing Sanity3
offset_index value2268
offset list size2268
reward size2268
potential size2268
-----------------------------------------------------------------------------------------------------------------------------------------------------------------------------------------------------

DRAM Statistics
 CHANNEL 0
 RQ ROW_BUFFER_HIT:      29452  ROW_BUFFER_MISS:     203706
 DBUS_CONGESTED:         52
 WQ ROW_BUFFER_HIT:      18136  ROW_BUFFER_MISS:     180763  FULL:          0

 AVG_CONGESTED_CYCLE: 4
 All warmup complete: 2
Channel 0 Bank busy for read cycles: 0
Channel 0 Bank busy for write cycles: 0
Channel 0
Rank 0
0banks busy for read cycles: 416666732
0banks busy for write cycles: 123614
1banks busy for read cycles: 22984820
1banks busy for write cycles: 16828912
2banks busy for read cycles: 2838138
2banks busy for write cycles: 3568445
3banks busy for read cycles: 386003
3banks busy for write cycles: 849921
4banks busy for read cycles: 222801
4banks busy for write cycles: 365103
5banks busy for read cycles: 85656
5banks busy for write cycles: 238136
6banks busy for read cycles: 44384
6banks busy for write cycles: 151992
7banks busy for read cycles: 33872
7banks busy for write cycles: 181101
8banks busy for read cycles: 48348
8banks busy for write cycles: 284905

CPU 0 Branch Prediction Accuracy: 99.8374% MPKI: 0.292835 Average ROB Occupancy at Mispredict: 37.7662
Branch types
NOT_BRANCH: 163982143 81.9911%
BRANCH_DIRECT_JUMP: 1742577 0.871289%
BRANCH_INDIRECT: 9604965 4.80248%
BRANCH_CONDITIONAL: 18080052 9.04003%
BRANCH_DIRECT_CALL: 2572130 1.28607%
BRANCH_INDIRECT_CALL: 719271 0.359635%
BRANCH_RETURN: 3298511 1.64926%
BRANCH_OTHER: 0 0%

DRAM PAGES: 1048576
Allocated PAGES: 4015
