
*** ChampSim Multicore Out-of-Order Simulator ***

Warmup Instructions: 50000000
Simulation Instructions: 200000000
Number of CPUs: 1
LLC sets: 2048
LLC ways: 16
Off-chip DRAM Size: 4096 MB Channels: 1 Width: 64-bit Data Rate: 6400 MT/s
CPU 0 runs traces/spec2k17/srv_23.champsimtrace.xz
.xz
BTB has LRU replacement policy
ITLB has LRU replacement policy
DTLB has LRU replacement policy
STLB has LRU replacement policy
L1I has LRU replacement policy
L1D has LRU replacement policy
Initialize SRRIP state for L2C
Initialize DRRIP state for LLC
Heartbeat CPU 0 instructions: 10000002 cycles: 2849660 heartbeat IPC: 3.50919 cumulative IPC: 3.50919 (Simulation time: 0 hr 0 min 35 sec) 
Heartbeat CPU 0 instructions: 20000003 cycles: 5691838 heartbeat IPC: 3.51843 cumulative IPC: 3.5138 (Simulation time: 0 hr 1 min 10 sec) 
Heartbeat CPU 0 instructions: 30000003 cycles: 8532191 heartbeat IPC: 3.52069 cumulative IPC: 3.5161 (Simulation time: 0 hr 1 min 43 sec) 
*** Reached end of trace for Core: 0 Repeating trace: traces/spec2k17/srv_23.champsimtrace.xz
Heartbeat CPU 0 instructions: 40000002 cycles: 11374247 heartbeat IPC: 3.51858 cumulative IPC: 3.51672 (Simulation time: 0 hr 2 min 15 sec) 
Heartbeat CPU 0 instructions: 50000003 cycles: 14215416 heartbeat IPC: 3.51968 cumulative IPC: 3.51731 (Simulation time: 0 hr 2 min 49 sec) 

Warmup complete CPU 0 instructions: 50000003 cycles: 14215416 (Simulation time: 0 hr 2 min 49 sec) 

Offsets elements: 
Potential of Offsets elements: 
rewards of Offsets elements: 
Printing Sanity1
offset list size1926
Offsets elements: 
Potential of Offsets elements: 
rewards of Offsets elements: 0 0 0 0 0 0 318 0 0 0 0 121 4 1015 0 0 0 0 0 0 0 919 0 0 0 0 975 1049 0 0 0 0 38 70 0 0 0 0 0 0 0 0 563 95 0 0 0 26 0 0 431 0 0 0 0 0 0 0 0 0 0 0 0 573 0 0 0 0 0 0 0 0 0 1027 178 154 0 0 0 0 43 0 0 0 0 0 0 0 0 0 0 0 0 0 0 719 0 0 0 0 0 1392 0 0 0 198 0 0 0 0 0 0 665 400 259 0 120 0 0 0 0 0 1213 0 0 0 0 0 0 0 0 0 415 0 0 26 0 0 0 0 0 0 0 0 0 0 0 0 0 0 0 0 0 16 0 1 0 0 3 0 0 0 0 0 0 210 249 0 0 0 0 0 0 0 171 179 3 0 0 0 441 0 0 365 0 0 2 0 0 0 297 0 0 0 0 0 9 0 0 0 253 0 0 0 0 0 403 488 0 0 0 0 0 0 0 0 0 0 42 0 2 0 0 0 0 0 0 0 0 0 0 0 0 295 0 0 0 0 18 0 20 0 24 147 0 0 0 0 0 2 0 0 0 0 0 0 0 0 0 0 0 0 0 0 0 0 0 0 0 0 0 0 0 0 0 0 912 68 0 0 0 0 0 0 0 2 0 0 0 0 3 0 0 0 0 126 0 0 0 1 0 0 3 7 0 0 0 0 0 0 0 0 0 0 131 0 0 0 0 0 0 0 0 0 0 0 330 73 0 0 0 0 0 0 0 0 0 0 0 0 21 0 0 0 12 23 0 0 0 0 0 0 0 0 0 0 0 0 0 0 0 0 0 0 0 0 0 0 0 313 54 128 0 7 52 10 0 0 8 0 0 0 602 279 0 0 0 0 0 0 0 0 0 0 0 0 0 2805 0 0 0 0 0 0 0 0 0 0 0 0 0 430 3906 60 0 0 0 0 0 0 0 0 1000 0 216 3 0 0 7 0 0 0 208 0 0 0 2 0 0 0 0 0 0 0 0 0 0 0 0 0 0 0 2 185 252 0 0 156 0 0 0 0 0 0 0 0 234 0 0 0 0 0 0 0 0 0 0 0 0 0 0 0 0 0 0 0 0 0 0 0 0 0 0 0 0 9 0 0 0 0 0 0 49 0 0 0 0 1 48 0 0 0 0 0 0 0 1 0 0 0 0 0 0 0 0 0 0 0 0 0 0 0 0 0 0 0 0 86 0 1 1 0 0 40 0 0 0 0 0 12 0 0 0 0 0 0 0 0 0 0 0 0 0 218 0 0 0 0 59 0 0 0 0 32 0 0 0 0 0 4 0 0 0 0 0 0 0 0 0 0 0 185 0 0 0 0 0 0 0 0 0 0 0 0 0 0 0 0 0 0 6 0 0 0 0 0 0 0 0 9 176 142 0 240 40 0 0 0 0 0 0 0 547 0 2 0 0 0 0 0 0 0 2 0 0 0 0 0 0 0 0 0 0 0 0 0 0 0 0 0 0 0 8 128 0 0 0 0 0 0 0 0 0 1 0 0 0 0 0 0 0 0 0 0 0 98 0 0 0 0 0 0 74 0 0 0 0 0 0 0 0 0 0 671 510 20 0 27 0 0 0 0 0 0 0 0 21 0 2 0 0 0 0 0 0 47 0 0 0 0 0 0 0 0 0 0 0 0 0 0 0 0 0 0 0 0 132 198 0 88 0 0 120 0 0 0 9 19 9 0 0 0 0 0 0 0 0 0 0 0 96 0 0 0 0 0 0 0 0 0 0 0 0 0 0 0 0 0 0 1 0 464 24 30 0 0 0 0 0 0 0 0 0 0 0 0 0 0 0 0 0 0 0 0 0 0 0 0 0 0 0 0 0 0 0 0 0 0 0 0 72 50 123 0 0 80 191 0 0 0 70 9 5 0 0 0 0 0 0 0 0 0 0 0 0 0 0 0 0 0 0 3 0 0 0 0 0 0 0 0 0 0 0 183 0 0 0 0 0 0 0 0 51 5 0 5 0 0 0 14 0 0 0 0 0 0 0 0 0 0 0 0 0 0 0 0 0 0 0 0 0 0 0 45 0 18 3 24 3 0 3 0 0 72 0 0 0 0 0 0 0 0 0 0 0 0 0 0 0 0 0 0 0 0 0 0 0 0 8 0 0 0 0 0 0 47 52 40 0 78 0 0 0 0 0 0 0 0 0 0 0 0 0 0 0 0 0 0 0 0 0 0 92 0 0 0 0 0 0 0 0 0 0 0 0 0 0 0 62 600 0 0 0 0 0 0 0 0 0 23 0 23 0 0 0 0 0 0 217 0 4 4 0 0 0 0 54 61 0 7 0 0 0 0 0 0 0 0 0 0 0 167 24 0 12 0 0 0 0 0 0 0 0 0 0 0 0 0 0 0 0 318 0 0 0 0 0 0 0 0 0 0 0 0 0 0 0 0 0 0 0 0 333 150 146 0 120 0 0 0 0 0 0 0 0 0 0 0 0 0 0 0 0 0 0 0 0 0 0 0 1 0 0 0 0 0 0 0 0 0 0 0 0 0 11 0 210 0 0 0 0 0 0 0 0 0 0 0 0 0 0 125 0 234 0 0 0 0 0 0 0 0 0 0 0 0 0 7 184 0 0 0 0 0 0 0 0 112 57 0 0 0 0 0 42 0 221 20 0 0 0 0 1 0 0 9 0 0 86 0 0 0 0 0 0 0 0 0 0 0 0 0 0 0 0 0 6 0 0 0 297 0 0 0 0 0 16 0 0 0 1 0 0 0 0 0 0 0 0 0 0 0 0 0 0 0 0 0 0 0 0 0 0 0 0 0 0 0 0 0 0 0 0 0 0 0 0 0 0 0 0 60 0 0 0 0 0 0 61 0 0 0 0 0 0 0 0 0 0 0 0 0 0 0 0 10 0 0 85 40 0 0 0 0 0 0 14 0 0 0 0 0 0 0 0 0 0 0 0 0 0 0 5 0 0 0 0 0 0 0 0 0 0 0 0 0 0 0 0 0 0 0 0 490 0 0 0 48 0 0 0 0 0 0 0 0 0 0 0 0 0 0 0 0 0 0 0 0 0 0 0 0 0 0 0 0 0 0 0 0 0 0 0 0 2 406 174 0 0 0 0 0 0 0 0 0 0 0 0 0 0 0 0 0 0 0 14 0 0 0 0 0 0 0 0 0 0 0 0 0 0 0 7 0 0 0 8 126 0 0 0 0 0 0 3 0 0 0 0 0 0 0 0 0 0 0 0 0 4 0 0 0 0 0 0 0 0 0 0 2 0 0 0 0 0 0 0 0 414 18 0 8 0 0 0 0 0 0 0 0 0 0 0 0 0 0 182 0 0 0 2 0 0 0 0 0 0 0 0 90 0 0 0 0 0 0 0 0 0 0 0 13 0 0 0 0 0 0 0 0 0 0 0 0 2 0 0 0 0 0 0 0 12 0 0 0 0 0 0 0 0 0 0 0 0 0 0 0 0 0 0 0 0 162 0 0 8 0 96 0 0 0 0 0 0 0 0 0 0 0 0 0 0 0 0 0 0 0 0 0 0 0 0 0 0 0 0 0 0 0 0 0 0 0 0 0 51 0 0 0 0 0 0 0 0 0 0 0 0 0 0 0 0 0 0 0 0 12 0 0 0 0 0 0 0 0 0 0 44 0 0 0 0 0 0 0 0 0 73 0 0 0 2 24 364 2 0 0 0 0 0 0 0 0 0 0 0 0 0 0 0 0 0 0 0 0 0 0 0 0 0 0 0 0 0 20 0 0 0 0 0 0 0 0 0 0 0 0 0 0 0 0 0 0 0 0 0 18 0 0 1 0 4 0 9 0 0 0 0 257 0 0 0 0 0 0 0 0 0 0 0 34 0 0 0 0 0 0 0 0 0 0 0 0 0 3 7 156 0 0 0 0 0 0 0 0 0 0 0 0 0 0 0 0 0 0 50 0 0 0 0 0 0 0 0 0 0 0 0 0 0 0 0 0 0 0 0 40 30 8 0 0 0 0 0 0 0 0 0 0 0 0 0 1 0 0 0 0 0 0 35 0 0 0 0 0 0 1 0 0 0 0 0 0 24 0 0 0 24 598 72 462 7 0 0 22 0 0 0 0 0 0 0 0 0 0 0 0 0 0 0 0 0 0 0 0 0 0 0 0 0 0 0 0 0 0 0 0 0 0 20 83 172 0 0 0 0 0 0 0 0 0 14 0 0 0 0 0 0 0 0 14 86 138 0 0 0 0 0 0 0 0 0 0 0 0 0 0 0 0 0 0 19 6 0 0 0 0 0 0 0 0 0 0 0 0 0 0 0 0 0 0 0 0 152 53 0 0 0 0 0 0 0 0 0 0 
Printing Sanity2
Heartbeat CPU 0 instructions: 60000000 cycles: 46656919 heartbeat IPC: 0.308247 cumulative IPC: 0.308247 (Simulation time: 0 hr 3 min 54 sec) 
*** Reached end of trace for Core: 0 Repeating trace: traces/spec2k17/srv_23.champsimtrace.xz
Heartbeat CPU 0 instructions: 70000000 cycles: 79125173 heartbeat IPC: 0.307993 cumulative IPC: 0.30812 (Simulation time: 0 hr 4 min 59 sec) 
Heartbeat CPU 0 instructions: 80000001 cycles: 111510597 heartbeat IPC: 0.308781 cumulative IPC: 0.30834 (Simulation time: 0 hr 6 min 6 sec) 
Heartbeat CPU 0 instructions: 90000002 cycles: 143938662 heartbeat IPC: 0.308375 cumulative IPC: 0.308349 (Simulation time: 0 hr 7 min 15 sec) 
*** Reached end of trace for Core: 0 Repeating trace: traces/spec2k17/srv_23.champsimtrace.xz
Heartbeat CPU 0 instructions: 100000000 cycles: 176365809 heartbeat IPC: 0.308384 cumulative IPC: 0.308356 (Simulation time: 0 hr 8 min 21 sec) 
Heartbeat CPU 0 instructions: 110000000 cycles: 208661565 heartbeat IPC: 0.309638 cumulative IPC: 0.308569 (Simulation time: 0 hr 9 min 26 sec) 
Heartbeat CPU 0 instructions: 120000001 cycles: 241086703 heartbeat IPC: 0.308403 cumulative IPC: 0.308545 (Simulation time: 0 hr 10 min 28 sec) 
*** Reached end of trace for Core: 0 Repeating trace: traces/spec2k17/srv_23.champsimtrace.xz
Heartbeat CPU 0 instructions: 130000000 cycles: 273488340 heartbeat IPC: 0.308626 cumulative IPC: 0.308555 (Simulation time: 0 hr 11 min 35 sec) 
Heartbeat CPU 0 instructions: 140000000 cycles: 305785259 heartbeat IPC: 0.309627 cumulative IPC: 0.308674 (Simulation time: 0 hr 12 min 40 sec) 
Heartbeat CPU 0 instructions: 150000003 cycles: 338263512 heartbeat IPC: 0.307898 cumulative IPC: 0.308596 (Simulation time: 0 hr 13 min 48 sec) 
*** Reached end of trace for Core: 0 Repeating trace: traces/spec2k17/srv_23.champsimtrace.xz
Heartbeat CPU 0 instructions: 160000002 cycles: 370598353 heartbeat IPC: 0.309264 cumulative IPC: 0.308657 (Simulation time: 0 hr 14 min 54 sec) 
Heartbeat CPU 0 instructions: 170000003 cycles: 402922347 heartbeat IPC: 0.309368 cumulative IPC: 0.308716 (Simulation time: 0 hr 15 min 56 sec) 
Heartbeat CPU 0 instructions: 180000001 cycles: 435425926 heartbeat IPC: 0.307658 cumulative IPC: 0.308634 (Simulation time: 0 hr 17 min 0 sec) 
*** Reached end of trace for Core: 0 Repeating trace: traces/spec2k17/srv_23.champsimtrace.xz
Heartbeat CPU 0 instructions: 190000001 cycles: 467779651 heartbeat IPC: 0.309083 cumulative IPC: 0.308666 (Simulation time: 0 hr 18 min 6 sec) 
Heartbeat CPU 0 instructions: 200000001 cycles: 500079046 heartbeat IPC: 0.309603 cumulative IPC: 0.308729 (Simulation time: 0 hr 19 min 11 sec) 
Heartbeat CPU 0 instructions: 210000001 cycles: 532565223 heartbeat IPC: 0.307823 cumulative IPC: 0.308672 (Simulation time: 0 hr 20 min 16 sec) 
*** Reached end of trace for Core: 0 Repeating trace: traces/spec2k17/srv_23.champsimtrace.xz
Heartbeat CPU 0 instructions: 220000000 cycles: 564876360 heartbeat IPC: 0.309491 cumulative IPC: 0.30872 (Simulation time: 0 hr 21 min 18 sec) 
Heartbeat CPU 0 instructions: 230000002 cycles: 597192161 heartbeat IPC: 0.309446 cumulative IPC: 0.30876 (Simulation time: 0 hr 22 min 26 sec) 
Heartbeat CPU 0 instructions: 240000001 cycles: 629657141 heartbeat IPC: 0.308024 cumulative IPC: 0.308721 (Simulation time: 0 hr 23 min 29 sec) 
Heartbeat CPU 0 instructions: 250000001 cycles: 662000504 heartbeat IPC: 0.309182 cumulative IPC: 0.308744 (Simulation time: 0 hr 24 min 37 sec) 
Finished CPU 0 instructions: 200000000 cycles: 647785089 cumulative IPC: 0.308744 (Simulation time: 0 hr 24 min 37 sec) 

ChampSim completed all CPUs

Region of Interest Statistics

CPU 0 cumulative IPC: 0.308744 instructions: 200000000 cycles: 647785089
ITLB TOTAL     ACCESS:   35724224  HIT:   33470384  MISS:    2253840  HIT %:     93.691  MISS %:      6.309   MPKI: 11.2692
ITLB LOAD TRANSLATION ACCESS:   35724224  HIT:   33470384  MISS:    2253840  HIT %:     93.691  MISS %:      6.309   MPKI: 11.2692
ITLB PREFETCH  REQUESTED:          0  ISSUED:          0  USEFUL:          0  USELESS:          0
ITLB USEFUL LOAD PREFETCHES:          0 PREFETCH ISSUED TO LOWER LEVEL:          0  ACCURACY: -nan
ITLB TIMELY PREFETCHES:          0 LATE PREFETCHES: 0 DROPPED PREFETCHES: 0
ITLB PREFETCHES SAME FILL-ORIGIN LEVEL: 0 DIFFERENT FILL-ORIGIN LEVEL: 0
ITLB AVERAGE MISS LATENCY: 9.14791 cycles
ITLB RQ	ACCESS:   41979084	FORWARD:          0	MERGED:    5720010	TO_CACHE:   36259074

DTLB TOTAL     ACCESS:   45776683  HIT:   43748459  MISS:    2028224  HIT %:    95.5693  MISS %:    4.43069   MPKI: 10.1411
DTLB LOAD TRANSLATION ACCESS:   45776683  HIT:   43748459  MISS:    2028224  HIT %:    95.5693  MISS %:    4.43069   MPKI: 10.1411
DTLB PREFETCH  REQUESTED:          0  ISSUED:          0  USEFUL:          0  USELESS:          0
DTLB USEFUL LOAD PREFETCHES:          0 PREFETCH ISSUED TO LOWER LEVEL:          0  ACCURACY: -nan
DTLB TIMELY PREFETCHES:          0 LATE PREFETCHES: 0 DROPPED PREFETCHES: 0
DTLB PREFETCHES SAME FILL-ORIGIN LEVEL: 0 DIFFERENT FILL-ORIGIN LEVEL: 0
DTLB AVERAGE MISS LATENCY: 9.23162 cycles
DTLB RQ	ACCESS:   60516635	FORWARD:          0	MERGED:   14679051	TO_CACHE:   45837584

STLB TOTAL     ACCESS:    4282064  HIT:    4252718  MISS:      29346  HIT %:    99.3147  MISS %:   0.685324   MPKI: 0.14673
STLB LOAD TRANSLATION ACCESS:    4282064  HIT:    4252718  MISS:      29346  HIT %:    99.3147  MISS %:   0.685324   MPKI: 0.14673
STLB PREFETCH  REQUESTED:          0  ISSUED:          0  USEFUL:          0  USELESS:          0
STLB USEFUL LOAD PREFETCHES:          0 PREFETCH ISSUED TO LOWER LEVEL:          0  ACCURACY: -nan
STLB TIMELY PREFETCHES:          0 LATE PREFETCHES: 0 DROPPED PREFETCHES: 228311
STLB PREFETCHES SAME FILL-ORIGIN LEVEL: 0 DIFFERENT FILL-ORIGIN LEVEL: 0
STLB AVERAGE MISS LATENCY: 26.4019 cycles
STLB RQ	ACCESS:    4571255	FORWARD:          0	MERGED:      31674	TO_CACHE:    4539581

STLB Hit, L1D data hit: 0
STLB Hit, L2C data hit: 0
STLB Hit, LLC data hit: 0
STLB Hit, LLC data miss: 0
STLB STLB hints to L2: 0
L1D TOTAL     ACCESS:   58577925  HIT:   53010032  MISS:    5567893  HIT %:    90.4949  MISS %:     9.5051   MPKI: 27.8395
L1D LOAD      ACCESS:   33910707  HIT:   29555865  MISS:    4354842  HIT %:    87.1579  MISS %:    12.8421   MPKI: 21.7742
L1D RFO       ACCESS:   24667218  HIT:   23454167  MISS:    1213051  HIT %:    95.0823  MISS %:    4.91766   MPKI: 6.06525
L1D PREFETCH  REQUESTED:     597749  ISSUED:     597749  USEFUL:          0  USELESS:          0
L1D USEFUL LOAD PREFETCHES:          0 PREFETCH ISSUED TO LOWER LEVEL:          0  ACCURACY: -nan
L1D TIMELY PREFETCHES:          0 LATE PREFETCHES: 0 DROPPED PREFETCHES: 289191
L1D PREFETCHES SAME FILL-ORIGIN LEVEL: 0 DIFFERENT FILL-ORIGIN LEVEL: 0
L1D AVERAGE MISS LATENCY: 16.8217 cycles
L1D RQ	ACCESS:   46430366	FORWARD:          0	MERGED:   12044262	TO_CACHE:   34060010
L1D WQ	ACCESS:   26602425	FORWARD:     326094	MERGED:     145800	TO_CACHE:   26456625
L1D PQ	ACCESS:     308558	FORWARD:          0	MERGED:      19367	TO_CACHE:     289191

L1D UNIQUE REGIONS ACCESSED: 0
L1D REGIONS CONFLICTS: 0
L1D Cross Page Prefetch Requests: 308558
L1D Same Page Prefetch Requests: 0
L1D ROI Sum of L1D PQ occupancy: 8766478
L1D PREFETCHES PUSHED FROM L2C: 0
L1I TOTAL     ACCESS:   40287583  HIT:   28878765  MISS:   11408818  HIT %:    71.6816  MISS %:    28.3184   MPKI: 57.0441
L1I LOAD      ACCESS:   40287583  HIT:   28878765  MISS:   11408818  HIT %:    71.6816  MISS %:    28.3184   MPKI: 57.0441
L1I PREFETCH  REQUESTED:          0  ISSUED:          0  USEFUL:          0  USELESS:          0
L1I USEFUL LOAD PREFETCHES:          0 PREFETCH ISSUED TO LOWER LEVEL:          0  ACCURACY: -nan
L1I TIMELY PREFETCHES:          0 LATE PREFETCHES: 0 DROPPED PREFETCHES: 0
L1I PREFETCHES SAME FILL-ORIGIN LEVEL: 0 DIFFERENT FILL-ORIGIN LEVEL: 0
L1I AVERAGE MISS LATENCY: 15.6585 cycles
L1I RQ	ACCESS:   58335755	FORWARD:          0	MERGED:   16356671	TO_CACHE:   41979084

BTB TOTAL     ACCESS:   30404626  HIT:   17762651  MISS:   12641975  HIT %:    58.4209  MISS %:    41.5791   MPKI: 63.2099
BTB BRANCH_DIRECT_JUMP	ACCESS:    1877215  HIT:    1053364  MISS:     823851
BTB BRANCH_INDIRECT	ACCESS:   12063358  HIT:    7236921  MISS:    4826437
BTB BRANCH_CONDITIONAL	ACCESS:    7180679  HIT:    5895807  MISS:    1284872
BTB BRANCH_DIRECT_CALL	ACCESS:    3903287  HIT:    1841897  MISS:    2061390
BTB BRANCH_INDIRECT_CALL	ACCESS:     738410  HIT:     357792  MISS:     380618
BTB BRANCH_RETURN	ACCESS:    4641677  HIT:    1376870  MISS:    3264807
BTB BRANCH_OTHER ACCESS:          0  HIT:          0  MISS:          0

L2C TOTAL     ACCESS:   19566575  HIT:   18610659  MISS:     955916  HIT %:    95.1145  MISS %:    4.88545   MPKI: 4.77958
L2C LOAD      ACCESS:   15763654  HIT:   14890632  MISS:     873022  HIT %:    94.4618  MISS %:     5.5382   MPKI: 4.36511
L2C DATA LOAD MPKI: 1.35593
L2C INSTRUCTION LOAD MPKI: 3.00918
L2C RFO       ACCESS:    1213051  HIT:    1160573  MISS:      52478  HIT %:    95.6739  MISS %:    4.32612   MPKI: 0.26239
L2C WRITEBACK ACCESS:    2330863  HIT:    2307017  MISS:      23846  HIT %:    98.9769  MISS %:    1.02305   MPKI: 0.11923
L2C LOAD TRANSLATION ACCESS:      30696  HIT:      24128  MISS:       6568  HIT %:    78.6031  MISS %:    21.3969   MPKI: 0.03284
L2C TRANSLATION FROM L1D PREFETCHER ACCESS:     228311  HIT:     228309  MISS:          2  HIT %:    99.9991  MISS %: 0.000875998   MPKI: 1e-05
L2C PREFETCH  REQUESTED:          0  ISSUED:          0  USEFUL:          2  USELESS:          0
L2C USEFUL LOAD PREFETCHES:          2 PREFETCH ISSUED TO LOWER LEVEL:          0  ACCURACY: inf
L2C TIMELY PREFETCHES:          2 LATE PREFETCHES: 0 DROPPED PREFETCHES: 0
L2C PREFETCHES SAME FILL-ORIGIN LEVEL: 0 DIFFERENT FILL-ORIGIN LEVEL: 0
L2C AVERAGE MISS LATENCY: 29.5111 cycles
L2C RQ	ACCESS:   17235718	FORWARD:          0	MERGED:          0	TO_CACHE:   17235712
L2C WQ	ACCESS:    2330863	FORWARD:          6	MERGED:          0	TO_CACHE:    2330863

L2C Instructions Evicting Data 176992
L2C Translations Evicting Data 3513
L2C Data Evicting Data 157735
L2C Instructions Evicting Instructions 422026
L2C Translations Evicting Instructions 2951
L2C Data Evicting Instructions 162402
L2C Instructions Evicting Translations 2819
L2C Translations Evicting Translations 106
L2C Data Evicting Translations 3526
L2C Dense regions hint from L2: 0
PSCL5 TOTAL     ACCESS:     257657  HIT:     257657  MISS:          0  HIT %:        100  MISS %:          0   MPKI: 0
PSCL5 LOAD TRANSLATION ACCESS:      29346  HIT:      29346  MISS:          0  HIT %:        100  MISS %:          0   MPKI: 0
PSCL5 TRANSLATION FROM L1D PREFETCHER ACCESS:     228311  HIT:     228311  MISS:          0  HIT %:        100  MISS %:          0   MPKI: 0
PSCL5 PREFETCH  REQUESTED:          0  ISSUED:          0  USEFUL:          0  USELESS:          0
PSCL5 USEFUL LOAD PREFETCHES:          0 PREFETCH ISSUED TO LOWER LEVEL:          0  ACCURACY: -nan
PSCL5 TIMELY PREFETCHES:          0 LATE PREFETCHES: 0 DROPPED PREFETCHES: 0
PSCL5 PREFETCHES SAME FILL-ORIGIN LEVEL: 0 DIFFERENT FILL-ORIGIN LEVEL: 0

PSCL4 TOTAL     ACCESS:      26021  HIT:      25861  MISS:        160  HIT %:    99.3851  MISS %:   0.614888   MPKI: 0.0008
PSCL4 LOAD TRANSLATION ACCESS:      26019  HIT:      25859  MISS:        160  HIT %:    99.3851  MISS %:   0.614935   MPKI: 0.0008
PSCL4 TRANSLATION FROM L1D PREFETCHER ACCESS:          2  HIT:          2  MISS:          0  HIT %:        100  MISS %:          0   MPKI: 0
PSCL4 PREFETCH  REQUESTED:          0  ISSUED:          0  USEFUL:          0  USELESS:          0
PSCL4 USEFUL LOAD PREFETCHES:          0 PREFETCH ISSUED TO LOWER LEVEL:          0  ACCURACY: -nan
PSCL4 TIMELY PREFETCHES:          0 LATE PREFETCHES: 0 DROPPED PREFETCHES: 0
PSCL4 PREFETCHES SAME FILL-ORIGIN LEVEL: 0 DIFFERENT FILL-ORIGIN LEVEL: 0

PSCL3 TOTAL     ACCESS:      27743  HIT:      27583  MISS:        160  HIT %:    99.4233  MISS %:   0.576722   MPKI: 0.0008
PSCL3 LOAD TRANSLATION ACCESS:      27741  HIT:      27581  MISS:        160  HIT %:    99.4232  MISS %:   0.576764   MPKI: 0.0008
PSCL3 TRANSLATION FROM L1D PREFETCHER ACCESS:          2  HIT:          2  MISS:          0  HIT %:        100  MISS %:          0   MPKI: 0
PSCL3 PREFETCH  REQUESTED:          0  ISSUED:          0  USEFUL:          0  USELESS:          0
PSCL3 USEFUL LOAD PREFETCHES:          0 PREFETCH ISSUED TO LOWER LEVEL:          0  ACCURACY: -nan
PSCL3 TIMELY PREFETCHES:          0 LATE PREFETCHES: 0 DROPPED PREFETCHES: 0
PSCL3 PREFETCHES SAME FILL-ORIGIN LEVEL: 0 DIFFERENT FILL-ORIGIN LEVEL: 0

PSCL2 TOTAL     ACCESS:      29346  HIT:      28316  MISS:       1030  HIT %:    96.4902  MISS %:    3.50985   MPKI: 0.00515
PSCL2 LOAD TRANSLATION ACCESS:      29346  HIT:      28316  MISS:       1030  HIT %:    96.4902  MISS %:    3.50985   MPKI: 0.00515
PSCL2 PREFETCH  REQUESTED:          0  ISSUED:          0  USEFUL:          0  USELESS:          0
PSCL2 USEFUL LOAD PREFETCHES:          0 PREFETCH ISSUED TO LOWER LEVEL:          0  ACCURACY: -nan
PSCL2 TIMELY PREFETCHES:          0 LATE PREFETCHES: 0 DROPPED PREFETCHES: 0
PSCL2 PREFETCHES SAME FILL-ORIGIN LEVEL: 0 DIFFERENT FILL-ORIGIN LEVEL: 0

LLC TOTAL     ACCESS:    1009557  HIT:    1007971  MISS:       1586  HIT %:    99.8429  MISS %:   0.157099   MPKI: 0.00793
LLC LOAD      ACCESS:     873022  HIT:     871529  MISS:       1493  HIT %:     99.829  MISS %:   0.171015   MPKI: 0.007465
LLC RFO       ACCESS:      52477  HIT:      52403  MISS:         74  HIT %:     99.859  MISS %:   0.141014   MPKI: 0.00037
LLC WRITEBACK ACCESS:      77488  HIT:      77484  MISS:          4  HIT %:    99.9948  MISS %: 0.00516209   MPKI: 2e-05
LLC LOAD TRANSLATION ACCESS:       6568  HIT:       6555  MISS:         13  HIT %:    99.8021  MISS %:   0.197929   MPKI: 6.5e-05
LLC TRANSLATION FROM L1D PREFETCHER ACCESS:          2  HIT:          0  MISS:          2  HIT %:          0  MISS %:        100   MPKI: 1e-05
LLC PREFETCH  REQUESTED:          0  ISSUED:          0  USEFUL:          0  USELESS:          0
LLC USEFUL LOAD PREFETCHES:          0 PREFETCH ISSUED TO LOWER LEVEL:          0  ACCURACY: -nan
LLC TIMELY PREFETCHES:          0 LATE PREFETCHES: 0 DROPPED PREFETCHES: 0
LLC PREFETCHES SAME FILL-ORIGIN LEVEL: 0 DIFFERENT FILL-ORIGIN LEVEL: 0
LLC AVERAGE MISS LATENCY: 156.383 cycles
LLC RQ	ACCESS:     932070	FORWARD:          0	MERGED:          0	TO_CACHE:     932069
LLC WQ	ACCESS:      77488	FORWARD:          1	MERGED:          0	TO_CACHE:      77488

LLC Dense regions hint to LLC: 0

RAW hits: 1457961
Loads Generated: 47888328
Loads sent to L1D: 46430366
Stores Generated: 26602422
Stores sent to L1D: 26602425
Major fault: 0 Minor fault: 1820
Allocated PAGES: 1820
ucb ended
-----------------------------------------------------------------------------------------------------------------------------------------------------------------------------------------------------
Offsets elements: -11597236 991336 10604165 -10604178 -4228726 4228763 9 -991336 -3237436 -2200614628246 2200618856988 -16 36 1 294230 -294267 10605912 -11597248 11597214 -10519519 207908 -1 10311648 -10311647 -294269 294269 2 3 -294272 272876 21396 -21396 -272876 10603920 -2200629472974 2200619163326 294272 -21397 -211116 232510 -232512 -21381 -2 -20 -40020 -72465880900 72465920940 -11 -31489 31479 4 -31480 31478 -31479 31488 -172961 -2200618975390 2200618975390 -94453 227398 8527 31480 20 -5 -192427 192427 -31497 31497 -192426 192431 -192431 21377 -21373 -3 -31496 31500 -2200619139184 2200619139189 -31502 31495 -17 -72465880899 72465920922 -31476 -2200619116821 2200619148300 21394 -21380 -31493 -160908 160907 31494 -160932 -2200619172876 2200619172865 6 -31500 52874 -21377 -31498 31498 5 -31503 31501 -18 14 7979 -2200619178186 2200619191580 -21375 -2200619172865 2200619172877 -6 -7 -12 -2200619172853 2200619180846 -2200619180846 2200619172863 21376 -21370 21372 -4 -2200619172019 2200619172003 -2128153251929 2200619172871 7993 -7978 7978 -7993 13397 -13397 -7970 7971 -7975 7973 -7976 7976 13398 -13398 13395 -21372 21374 -7997 8001 -2200619156298 7996 13392 -13391 -162944 162945 -3744303843 3739760417 14868639 -10311823 -13392 -2200619180279 2200614636860 -3739760270 3754628896 -14868626 14868626 -10311820 -21367 -21 17 -2200619172870 2200619172870 21370 21375 -2200619193435 -810 21369 -21369 -15 -172954 -2200619082266 2200619276609 -21366 7 21371 -21368 -10 -2200619172018 2200619193397 -21378 2200619172025 -2200619193394 2200619193393 12 21380 21368 -21376 2200619172019 21378 -23 -40010 -2200619131993 2200619172027 -2200619194240 2200619172872 -2200619172061 2200619172045 21385 -21388 8 -8 -12847239 12868635 -2200619082265 2200619255232 2200619193399 -21379 -2200619172667 2200629501191 -10328524 10307146 -10307146 10328524 2506 -10309653 -2200619194045 2200619194044 10311645 -2200629505689 2200629504263 -3072 3072 -10310218 10331596 -2200629504460 2200629504460 -9 -10331596 10310218 -10310219 10310217 -10310217 211113 16 21379 -52878 52882 -213812 213812 -21383 2200619194248 52879 -21382 -21398 272877 -2200619148298 2200619148303 294273 -294273 2200619163327 -12868643 12901876 -33235 -294279 38 10603875 -10309639 -294282 294282 294287 -288223780701800521 -79 -1465993202267 1465993202268 -1465992325979 -876294 -200263 1465993402652 -1465993402541 1465995990061 -1465995968607 48953 -54698 1099064 -1114889 1465993402530 2587642 -2587643 -1058083 181783 -199975 1465995935524 -2533199 -78 288223780712110508 -10604195 -2200619016727 2200619016727 23 112665 -112665 -51234 -384124 650182 -33236 33235 -33238 -12868644 12901877 -2200619309661 2200606407784 12847238 2200619148301 -272877 10309647 2200619163328 -21400 21 52883 213811 21383 -21374 -52880 31481 -31482 -241396 241398 31482 -2200619148297 21395 -52875 52876 -160907 213782 -52876 -21399 -294274 -2200619148301 -10309647 -2200619163327 -33233 294278 -288223780701800600 79 -1465993202268 1465993202291 -1465993402553 1465993402546 2587626 -2587641 -1465992367350 1465992367372 -1465992287664 -1114854 17938 1017208 17939 -17974 1465993402548 2587624 -2587625 -1465993402546 201524 -201527 1465993402549 2587623 -2587624 -1465992367369 -1045730 1045730 -1035178 1465993201021 -1465993402549 20623 1465995969549 -2587520 21470 48939 -70409 29416 -7958 48954 -70523 1465993402550 2587622 -2587623 2587621 -2587621 -1465993402550 -1465993384110 140330 1465993243780 -1465993402554 1465993402631 2587541 -1465995834974 -155198 1465993402551 1081754 1465994908418 -1465995990172 156888 1465995833284 -1465995833281 -167785 10894 -1465993402631 1465993402547 2587625 -1465993247350 1465995834974 -54699 1087088 -1102913 -1465993402548 1465995990172 -1465995989929 1465995978542 -1465995962523 1465995962523 11387 -2587627 -1465993386283 138862 -155124 2587520 -1465995990061 70409 -48954 48963 -48958 1465993380974 -1465993332016 -70529 -1465993386721 1465995974347 -1465994919810 32551 -947789 1102913 -946604 1465995833863 -1465995833863 1465993246236 -1465993247421 1186 946603 -946603 1465993246235 -1465993402545 -1465994919805 1465992332176 -1465993402543 -2587630 -1465993402542 -48955 -21565 15825 1465993386717 -1465993332017 1465995968602 -1465995792150 872348 -1070116 -182419 1465993584708 2529261 -1465996113968 1252527 1465992332182 -1465992332182 1465992332181 -1465993247419 947789 -946602 -156311 -2587628 -1465993402544 1465993402544 2587628 -1465993247420 -946601 -1188 -946600 -1189 -946599 -1190 -946598 -1191 -1465992299632 -1102675 1102675 1465992299632 -1465992299631 -1465992320792 -924864 -1694 -165682 11204 1102197 -2932032488017 2932031540298 -718 -1465995989886 1465995931508 58386 -58033 53072 -2582666 -1064546 1085507 1465992299833 -1465992299635 1465992299635 -21159 -924866 -167782 167785 4104 -171834 171834 19943 -191675 191675 -180938 1465993386721 -1465993332023 -48953 -1465994908454 -1063563 -17912 -1465995958714 1465993382473 -1465993382475 1465993382475 -1465993247352 -2932031540296 2932031385820 -11204 1465995942272 -1465995931786 286 1465995984924 -53416 53417 -53072 58033 -2587626 -1465992299634 1465992299634 -1465993402547 -1465993245660 1465993245661 -1465993247354 -166549 168242 924866 1465992320795 -1465992320795 1465992320794 -1465993202955 -39547 -163535 1465993406036 -1465994875283 1465992287664 -55 -1465993402498 1114889 1465994875283 -2587684 55 -1114640 1114640 1465992287599 -1465992299576 -21158 -1081724 17035 1085650 -20961 -1065587 1086547 -21056 -880141 -206784 5267 201517 1465995788655 -1465995792210 -197962 1465993402488 2587684 -2587687 -1465993402489 1081658 1465994908514 -1465995788655 880141 -1081658 -1465994908514 1465992320819 -1465993402477 -2587696 -2587693 -1465992299565 -28423 -1085774 1085774 -1057782 -27993 1085775 1465992327977 56 1465992287608 1465992287600 -1465993402259 1114651 1465993402531 2587641 -1465995989934 1465992287642 -42 -2587683 -1465993402249 1465993402292 -19 19 -1465993402289 1465993402270 2576389 -2576390 -1465993402253 -181684 1465993583935 11 -1465993402254 1465993402272 -1465993583958 -1465993385429 1085853 -1086037 1053486 -1081755 17961 246 1465993384282 -1465993385433 180889 1465993204543 -1465993402481 17941 1465993384516 64 1465993402498 2587674 -1465993402304 -2587674 1465992287610 -2587685 -2587673 -1465993402499 -17965 -1465995919652 1465993386654 -1465993331955 -1465994908458 1465992320769 -1465993573053 1465993573052 -1465992287595 1465992287594 1465992287592 -1285460 1465993573051 -1465992287592 -1114649 -183092 1297741 -1297741 1465993585333 -1465993573051 1465993573053 1465992287595 -1465992287594 1252284 1465992320770 -1465993402482 -21581 1465993402479 -1465993372860 1465995960554 -2587689 -1465993331958 -70524 21570 1465995919649 -2587692 -1465993402479 1465993402485 2587687 -1465992287610 1465992287609 1465993402487 2587685 -2587686 10 2587683 -1465992299575 1086037 -32551 11392 1465992299798 -1465993402512 1465993402511 2587661 -1465995990158 16144 1465993386354 -1465993402511 27 -1465993402274 1465993402247 -1465993402483 1465993402483 2587689 -2587690 29 -27 -1465993402485 -1465993402247 1465993402248 1465993402482 2587690 -2587691 -1465993402473 1465993402472 -1465993386331 1465993386331 -1465992320825 1465993402481 2587691 -1465993247284 -1465994908417 1465992320727 -1465993200966 -3555 1465993204521 1465993402486 2587686 -1465993402484 1465993402489 13 -1465993402500 -1465993402488 1465994887259 -1465995973296 1465993385635 -1465992332150 1465992332150 -13 -1465992299586 11393 1465992320744 -1465992332136 1465992332149 1465993402459 2587713 -2587660 1465993402221 -1465993402458 1465993402457 2587715 -1465995989933 1070124 1465992332096 -1465993402459 -2587714 -1465993402460 1465993402499 2587673 -1114651 -238 -1465993402220 1465992287569 -1465993402456 1465993402456 2587716 -2587717 -1465993402216 1465993402219 -1465993402215 1465995978659 -2576444 -1465993402457 1465993386630 -1465993331930 -1465994918286 1465992330572 42 -2587672 -4398024787562 2932031385062 48952 1465993331929 -1465993331929 -70521 1465993402451 -1465993386626 -1465995832733 1465993245061 2932031385300 -2932031385300 4398024787514 -1465993402452 1465993402453 2587719 -2587719 -1465992330567 1465992330569 -1465992330569 1465992330610 1465992287564 -1465993402453 -1465992287564 1465992287560 2587721 -2587722 -2587720 -1465993573021 170808 -182611 1465993584826 44 -1114652 -2587723 -1465992287560 1465992287561 -1465993402449 -1465993402451 -1465996160742 1465993573069 1465993386625 -1465993331928 1465993380882 1465993402261 -1465992317050 29440 1465992287563 -2587716 -1465992330570 1114652 -1114890 1465993402449 -1465992287561 1465992287562 1242460 -1071890 1071886 -2932032456948 4398027375234 914448 -1071887 -4398027375234 81 2932031384981 2587723 -2587724 -1465992330560 -2932032456949 2932032456952 1465992330561 1465993402458 2587714 -2587715 -1465994918282 -157439 -2932031384981 2932032456868 1465994918285 -2932031385062 4398024787512 -1465992330563 1465994918284 -2932032456951 1465992330564 -1465992330573 2932031385107 -45 -1465996160127 169955 1465993386626 1465995968603 -1465994904736 -1085395 1071845 13563 -13563 1465992330568 -1465993402410 1085405 1465992317006 -1465993402455 1465993402455 2587717 -1465992317006 -1085211 1085212 1465992317000 -1465993402450 -2587718 -1465992317005 1085449 1465994904723 -1085449 -1465993331925 1465995919648 -1465994887263 -1102872 1465993402414 -1085212 1085211 1465992317002 -1102910 -1465994887262 -1465992316999 -1465993402447 1465993402447 2587725 -2587726 -1465993402208 1102672 1465992299538 -1465992299538 1465993402450 2587722 -1465992299546 -1107590 1465993407129 -1465992317015 -1085436 1465993386623 -48952 -1465995834972 930236 1465992317015 -1465992317018 -1090042 1090042 1465992317017 -1465993247253 -4647 -1465993366449 1465995954172 -1085399 21532 -1465993372825 1465995960547 -1465995968603 1465993331934 1465993386631 -1465993331933 1465992317024 1085436 1465994904736 -1465992317022 1465992317029 -1465992317029 -1096581 11145 1465994918286 -1465994904723 1465992317005 -1465993402454 1465993402454 2587718 1465992316999 -1465992317001 1465992317001 -1085210 1085210 -1264431 1264431 -1264430 179220 -239 1102909 1465994887263 -1465992299543 1107590 1465993407134 1465993407133 1076568 -1465994918285 -4398024787512 2587720 170570 -1465992317020 -13550 -914447 1465993245017 1465993402460 2587712 -2587713 -1465993384260 -725 180466 -179741 -197948 1465995958714 -1465995970101 135123 10486 53425 4961 53071 -2582755 -1465992299598 1465995990166 -1465996058155 1465993470495 -59 -1465993402418 16673 1465993385780 -1465992327998 1465992327998 -1085776 1085776 22 -22 1057809 -26 -1074491 -1465994915681 1057782 -1085777 1085777 -1074243 159312 1465993242889 158 -1465993243046 1465993242890 -1465993242891 878825 -836859 1465993200925 -1465993201013 88 1465993200923 -1465993201011 873054 -917027 -157216 159311 -159559 1085822 -1057665 -16591 1465993402328 -1465993384463 1465993384307 -1465993385744 -24 -1074493 1074492 -1057784 1465995973464 -1465994915682 -11534 170846 1465993243047 878824 -836947 1487 -43364 41964 -1465993200926 872968 -871568 -1400 -201276 -1465993245030 1465993245032 35 -35 -1465993402205 1465993402263 -25 -1465992327997 1465993413773 1074455 -1057619 -28157 1057814 -1074522 1074494 -1057785 914934 -36109 36110 -914935 41878 -201189 1465993242891 1465993402452 -1465993199528 1465993199529 -1465995832720 1465993245002 -1465995989923 -1085775 11285 -1465992328022 1465992327960 -1465992327958 1465992327959 -1465992327962 -1465993402446 -61 1465992327958 -1465992327957 1465992327957 -1465993572602 170150 16013 1465993386346 -1465993386346 1465993386252 -1465993386252 182493 -198513 -1465993203759 1465993203702 -1465993203701 -182494 -16012 16011 -16259 57 -1465993384545 1465993384488 33 -33 -1465992327966 18 1057816 -1074524 1074495 -1057786 -1465993243047 1465993242892 -1465992364068 36111 -159312 41966 -201525 -1465993245010 1465993245011 32 24 161276 1465995828896 -1465993241236 -161036 161036 1465993241236 -1465993241234 1465993241234 -56 -1465993241178 907531 -1068569 -1465992333702 1465992333702 -1068810 34 -1465993402487 31 -1465992299574 1465993385611 -1465992332125 -11393 -1070362 345 -4961 -2582754 54 1465993402220 -1465993402217 1465995989933 -1465992332095 1465992332095 -1465993241210 1465993241233 -1465992332149 1070125 -1070124 1465994908423 -2576274 -1465992332093 1465992332093 -1465995832167 -158005 -1084982 1063823 1465992320704 -1465993245570 -156885 -1465995989925 155836 1465993246523 -94 -1465993402265 1465993402266 -1465993246426 59449 -59449 59399 1465993187027 -1465993187027 1465993187026 -1465993402271 1465993186970 -1465993246368 -156083 215482 -59402 -155835 -248 -1465994887259 1081755 1465994908417 -1085239 1064080 908594 -909415 5425 -172457 172474 1465993240934 -1465992299531 -1084992 1052450 11383 -1063825 -17929 -1465994887456 -1102716 1465993402444 2587728 -2587731 -1465993402440 -2587727 -1465993402463 -2587707 -13546 31023 -805 1465993246382 -1465993402465 -70520 -1465993380890 -5740 1465993386629 -1465995919649 1060144 1465992320741 -1465995990133 653 -692 -1465995832172 1465993244422 -1465993402422 1465993402421 2587751 -2799 1465993247220 -1465993242429 -159990 1465993402417 2587755 -2587755 1465993402416 -1465993244416 1465993244417 -2587754 -1465993242432 1465993242427 42384 1465993200042 -1465993242427 1465993242429 -1465993402417 -1465995830181 -159744 159744 1465993242425 190 -1465993242614 -159992 -1465993380850 -1465995919650 138423 925553 -887305 -198237 159988 -159743 1465993402418 2587754 -1465993200041 -42386 42385 -860 1465993200906 -1465993402421 1465993386592 -1465993331895 -1465995790580 1465993202829 -1465992316876 1465992316875 -1465993200045 -202375 -2587749 -1465993200048 -202137 202137 1465993200048 -1465993200046 832717 1465992367329 -185319 1465993385363 -1465993402429 1465993386591 -1465993331893 -1465994908464 1465992320721 -1465992320715 1465992320715 1465992316876 -1465993372792 1465993331900 -1465992316983 2932032456948 -1071886 1465992316968 -1465993402179 1465992316963 -1465992316962 -1465992316964 1465992316964 -1465993402415 2587758 -1465992316968 -1268301 1268301 -1254762 1465993571730 -2587757 -1465992316979 13546 -927435 -1465993402416 1465993402428 -1465993384298 -18076 17912 -17275 17275 138921 1465993241423 -1465993413256 1465993413262 -1465993402424 -2587753 40 -13549 2932031543063 -158001 158000 1465995832172 1465993402424 2587748 1465993247221 2587750 -1465995830182 1465993242432 -1465993242434 42386 -202376 -1465992316975 -2587748 -1085450 1465992316971 -1465993585275 183091 -183091 1465993571735 -1465993402423 1465995832171 1465992330534 -1465993384217 -722 180463 1465993204510 -1465993402652 111 15714 1465993386599 -1465993331903 1465995919652 48960 176492 -197744 -318 1465992316975 1465992316973 -2587750 -1465993402184 1085450 1465992316969 -1465992316970 -1465992316973 -1085209 -1465993402420 1465993402419 -1465993386594 54697 1465993380849 2587753 -1465994904627 1465992316972 -2587751 -1465992316972 1465993402422 -887385 -197824 1465995978545 -1465995776410 -4310 1465995792107 -1465995787797 1465995776411 -1465995776411 1465993204357 2576363 1465993200046 925446 -32 -1465992316990 1465992316991 -1465992320720 -46618 46617 -882116 882116 -1081708 1465993402423 -1465993366335 1465995954085 -1060139 130993 1465993200914 -1465993372805 -1465995919648 1465993331904 -2587747 -1465994887207 -1102965 1102966 1465992299480 -1465993402335 48957 1016763 64633 -52 -156834 637 160265 -171492 171492 1465993241489 1465993386621 -1465993331923 -1465994951861 1465992364139 -21566 -1465993331919 1465995968601 -1465994887482 1465992299757 21454 1465993380880 1465993402446 -1465993380877 -54697 -1465994951828 64623 -1102967 -1465994887490 1465992299765 -1465992299481 1465992299483 -1465992299482 1465992299482 -1465992299483 1465992299484 -1465992364107 -1038344 -1465993372787 1465995960513 -1465993331922 -48956 48955 -70526 -1465993372913 1465995960639 -1465994887205 -1081398 1465993331927 -1465993402209 -1465995820789 944970 1465994887206 -1465995832176 1465995820790 -1465995820790 1465992299481 2576338 -2576339 2587726 -2587721 1102968 1465994887204 1465993386624 -1465993331927 -1465995832717 -157208 157756 1465993244603 -1465993244603 1465993244446 -1465993244446 43520 -201523 -1465993331926 -1465995832732 -157440 158003 1465995832168 157757 1465993244441 -1465993244443 -43520 -158004 1465993402448 2587724 -1465993402199 157755 1465993244447 -904904 -209306 209306 1465993204387 -1465992299484 -1465993413694 1114210 11244 -1465992299500 -17529 -13547 -1071889 -1465994908418 -924863 946024 -1465993385249 1085709 -1053923 1465993384493 -1465993245572 -139214 138393 -172456 10964 -941413 1465995828672 -920263 -172466 1092721 172464 -161500 -1465993241020 1465995828680 -1465996001137 -161509 -1465993402464 -1465995990058 21480 1465993381058 -1465993402540 21450 1465993380898 -1465993402349 15612 1465993364940 -1465993378853 13959 -13958 -23491 21466 2026 -23492 21467 1465993380877 -1465993378851 5381 -5381 13960 56661 -70620 5382 8577 1465993364953 -1465993364892 1465993364893 -1465993308232 1465993308232 -1465993402347 23493 -2011 -21469 -21562 -1465993386634 -2587712 -1465992299552 -1465995792110 -198062 -1465996001416 1465993413703 1465993386628 -1465993331931 1465993247255 -1465993204393 1465993413699 1465993204392 1465993380884 -1465994887367 1465992299654 -1465993247259 42862 1465993204397 -181036 1465993583257 -1465993402221 378860 -2587700 -1465992299667 -1102567 1465993402234 -1465992299654 -1102805 1465993382029 -1465993372795 -1465995968601 48956 1465993331932 -1465993366454 -1465993402224 1465993402233 -1465992332102 1465992332102 -1465993402472 -1465995972683 1085479 -64635 1085820 -36202 1465992364123 -1465992364123 -877375 877375 -1465992299489 -904902 -198064 4067 1465993241497 -1465993204392 209308 -1465995792107 1470 -199534 38074 887481 1465992316906 -1465993202917 -42920 -167360 10746 -111 -1465993380881 -1465993386622 -1465995919642 135042 948660 -948660 -156614 -1081718 1081718 1465994908454 -1465995833198 -156971 156971 -156727 156727 1465993245465 167 -1465993245631 156726 45915 -45915 1465993245466 -1465992320723 1465993402441 2587731 -46583 -809598 -225539 -1465995766151 427 -63231 -167198 231517 -225536 -1465995765728 -224444 1465993402437 2587735 -2587736 -1465993176900 -1124 1135 -1133 121 1003 -1106 -224437 -1465995996161 1465993408430 -1465993176895 1465993176896 -1465993408430 1465993408429 1465993402440 2587732 -2587733 -1465993176893 -1126 254576 -253438 253438 -253439 -1099 1092 -25753 25756 26885 1126 -1138 110 1465993177919 -1465993178030 254563 -254578 1136 1465993176894 -1088 -224448 -1465993384233 -51 179793 883769 -926524 -165680 -2582770 1465993402445 2587727 -2587730 -1465992320724 1465992320728 1035136 1465994955036 -1465995791207 836171 50323 1085208 -1085459 -48939 2587729 -1465995960547 -8056 964615 -1035137 -2587728 -1465993402444 -1465992297177 -1116014 10740 -1085545 1465993402443 -1465993402441 1465993402442 -1465993402330 1465993386618 -1465995968606 48961 1081234 1465992299641 -1465992316906 1465992316901 -1465992316901 -1085307 1085307 1465992316900 -1465993402445 -1465992316900 1465992316896 -1465992316896 1465992316897 -2587725 -1465993402442 -1465992297169 1102805 1465994887367 -1465992299641 1102567 -1465992299638 1465992299639 2587730 1465992299642 2483 1465992297139 -1465993519227 117026 -117026 1465993519228 -1465993402439 1102556 2494 1105061 -1465993402202 1465993402202 -2587732 1465992297144 -1465992297144 1465992297145 -1465993519231 117025 -117025 1465993519233 -1465992299644 1034747 25 -1027 1465992298172 -1465994885896 1465992298171 -1465993402443 225539 1465995764636 -1465995765724 1088 224444 1465995765728 -2587738 -1465992298159 -949061 1465993247235 -1465992298173 1465992298166 -1465993176897 -225545 -1465993402369 18075 1086124 -878732 879507 -879510 -1465992298165 -1104272 225536 -1465995765760 -1128 109 880523 -879508 878735 760 1716 -2481 -878727 625296 1139 879500 -880645 -25756 25757 905628 -878737 879503 -879499 -1514 1518 878742 -1104282 1104281 759 1465994885132 -1465994885126 1465992297397 -1465992297393 -69873 36991 32108 1465992298167 -1465992330275 
Potential of Offsets elements: 28.2791 28.2791 28.2791 28.2791 28.2791 28.2791 346.279 28.2791 28.2791 28.2791 28.2791 149.279 32.2791 1043.28 28.2791 28.2791 28.2791 28.2791 28.2791 28.2791 28.2791 947.279 28.2791 28.2791 28.2791 28.2791 1003.28 1077.28 28.2791 28.2791 28.2791 28.2791 66.2791 98.2791 28.2791 28.2791 28.2791 28.2791 28.2791 28.2791 28.2791 28.2791 591.279 123.279 28.2791 28.2791 28.2791 54.2791 28.2791 28.2791 459.279 28.2791 28.2791 28.2791 28.2791 28.2791 28.2791 28.2791 28.2791 28.2791 28.2791 28.2791 28.2791 601.279 28.2791 28.2791 28.2791 28.2791 28.2791 28.2791 28.2791 28.2791 28.2791 1055.28 206.279 182.279 28.2791 28.2791 28.2791 28.2791 71.2791 28.2791 28.2791 28.2791 28.2791 28.2791 28.2791 28.2791 28.2791 28.2791 28.2791 28.2791 28.2791 28.2791 28.2791 747.279 28.2791 28.2791 28.2791 28.2791 28.2791 1420.28 28.2791 28.2791 28.2791 226.279 28.2791 28.2791 28.2791 28.2791 28.2791 28.2791 693.279 428.279 287.279 28.2791 148.279 28.2791 28.2791 28.2791 28.2791 28.2791 1241.28 28.2791 28.2791 28.2791 28.2791 28.2791 28.2791 28.2791 28.2791 28.2791 443.279 28.2791 28.2791 54.2791 28.2791 28.2791 28.2791 28.2791 28.2791 28.2791 28.2791 28.2791 28.2791 28.2791 28.2791 28.2791 28.2791 28.2791 28.2791 28.2791 28.2791 44.2791 28.2791 29.2791 28.2791 28.2791 31.2791 28.2791 28.2791 28.2791 28.2791 28.2791 28.2791 238.279 277.279 28.2791 28.2791 28.2791 28.2791 28.2791 28.2791 28.2791 199.279 207.279 31.2791 28.2791 28.2791 28.2791 469.279 28.2791 28.2791 393.279 28.2791 28.2791 30.2791 28.2791 28.2791 28.2791 325.279 28.2791 28.2791 28.2791 28.2791 28.2791 37.2791 28.2791 28.2791 28.2791 281.279 28.2791 28.2791 28.2791 28.2791 28.2791 431.279 516.279 28.2791 28.2791 28.2791 28.2791 28.2791 28.2791 28.2791 28.2791 28.2791 28.2791 70.2791 28.2791 30.2791 28.2791 28.2791 28.2791 28.2791 28.2791 28.2791 28.2791 28.2791 28.2791 28.2791 28.2791 28.2791 323.279 28.2791 28.2791 28.2791 28.2791 46.2791 28.2791 48.2791 28.2791 52.2791 175.279 28.2791 28.2791 28.2791 28.2791 28.2791 30.2791 28.2791 28.2791 28.2791 28.2791 28.2791 28.2791 28.2791 28.2791 28.2791 28.2791 28.2791 28.2791 28.2791 28.2791 28.2791 28.2791 28.2791 28.2791 28.2791 28.2791 28.2791 28.2791 28.2791 28.2791 28.2791 28.2791 940.279 96.2791 28.2791 28.2791 28.2791 28.2791 28.2791 28.2791 28.2791 30.2791 28.2791 28.2791 28.2791 28.2791 31.2791 28.2791 28.2791 28.2791 28.2791 154.279 28.2791 28.2791 28.2791 29.2791 28.2791 28.2791 31.2791 35.2791 28.2791 28.2791 28.2791 28.2791 28.2791 28.2791 28.2791 28.2791 28.2791 28.2791 159.279 28.2791 28.2791 28.2791 28.2791 28.2791 28.2791 28.2791 28.2791 28.2791 28.2791 28.2791 358.279 101.279 28.2791 28.2791 28.2791 28.2791 28.2791 28.2791 28.2791 28.2791 28.2791 28.2791 28.2791 28.2791 49.2791 28.2791 28.2791 28.2791 40.2791 51.2791 28.2791 28.2791 28.2791 28.2791 28.2791 28.2791 28.2791 28.2791 28.2791 28.2791 28.2791 28.2791 28.2791 28.2791 28.2791 28.2791 28.2791 28.2791 28.2791 28.2791 28.2791 28.2791 28.2791 341.279 82.2791 156.279 28.2791 35.2791 80.2791 38.2791 28.2791 28.2791 36.2791 28.2791 28.2791 28.2791 630.279 307.279 28.2791 28.2791 28.2791 28.2791 28.2791 28.2791 28.2791 28.2791 28.2791 28.2791 28.2791 28.2791 28.2791 2805.11 28.2791 28.2791 28.2791 28.2791 28.2791 28.2791 28.2791 28.2791 28.2791 28.2791 28.2791 28.2791 28.2791 458.279 302.14 88.2791 28.2791 28.2791 28.2791 28.2791 28.2791 28.2791 28.2791 28.2791 1028.28 28.2791 244.279 31.2791 28.2791 28.2791 35.2791 28.2791 28.2791 28.2791 236.279 28.2791 28.2791 28.2791 30.2791 28.2791 28.2791 28.2791 28.2791 28.2791 28.2791 28.2791 28.2791 28.2791 28.2791 28.2791 28.2791 28.2791 28.2791 28.2791 30.2791 213.279 280.279 28.2791 28.2791 184.279 28.2791 28.2791 28.2791 28.2791 28.2791 28.2791 28.2791 28.2791 262.279 28.2791 28.2791 28.2791 28.2791 28.2791 28.2791 28.2791 28.2791 28.2791 28.2791 28.2791 28.2791 28.2791 28.2791 28.2791 28.2791 28.2791 28.2791 28.2791 28.2791 28.2791 28.2791 28.2791 28.2791 28.2791 28.2791 28.2791 28.2791 37.2791 28.2791 28.2791 28.2791 28.2791 28.2791 28.2791 77.2791 28.2791 28.2791 28.2791 28.2791 29.2791 76.2791 28.2791 28.2791 28.2791 28.2791 28.2791 28.2791 28.2791 29.2791 28.2791 28.2791 28.2791 28.2791 28.2791 28.2791 28.2791 28.2791 28.2791 28.2791 28.2791 28.2791 28.2791 28.2791 28.2791 28.2791 28.2791 28.2791 28.2791 28.2791 114.279 28.2791 29.2791 29.2791 28.2791 28.2791 68.2791 28.2791 28.2791 28.2791 28.2791 28.2791 40.2791 28.2791 28.2791 28.2791 28.2791 28.2791 28.2791 28.2791 28.2791 28.2791 28.2791 28.2791 28.2791 28.2791 246.279 28.2791 28.2791 28.2791 28.2791 87.2791 28.2791 28.2791 28.2791 28.2791 60.2791 28.2791 28.2791 28.2791 28.2791 28.2791 32.2791 28.2791 28.2791 28.2791 28.2791 28.2791 28.2791 28.2791 28.2791 28.2791 28.2791 28.2791 213.279 28.2791 28.2791 28.2791 28.2791 28.2791 28.2791 28.2791 28.2791 28.2791 28.2791 28.2791 28.2791 28.2791 28.2791 28.2791 28.2791 28.2791 28.2791 34.2791 28.2791 28.2791 28.2791 28.2791 28.2791 28.2791 28.2791 28.2791 37.2791 204.279 170.279 28.2791 268.279 68.2791 28.2791 28.2791 28.2791 28.2791 28.2791 28.2791 28.2791 575.279 28.2791 30.2791 28.2791 28.2791 28.2791 28.2791 28.2791 28.2791 28.2791 30.2791 28.2791 28.2791 28.2791 28.2791 28.2791 28.2791 28.2791 28.2791 28.2791 28.2791 28.2791 28.2791 28.2791 28.2791 28.2791 28.2791 28.2791 28.2791 28.2791 36.2791 156.279 28.2791 28.2791 28.2791 28.2791 28.2791 28.2791 28.2791 28.2791 28.2791 29.2791 28.2791 28.2791 28.2791 28.2791 28.2791 28.2791 28.2791 28.2791 28.2791 28.2791 28.2791 126.279 28.2791 28.2791 28.2791 28.2791 28.2791 28.2791 102.279 28.2791 28.2791 28.2791 28.2791 28.2791 28.2791 28.2791 28.2791 28.2791 28.2791 699.279 538.279 48.2791 28.2791 55.2791 28.2791 28.2791 28.2791 28.2791 28.2791 28.2791 28.2791 28.2791 49.2791 28.2791 30.2791 28.2791 28.2791 28.2791 28.2791 28.2791 28.2791 75.2791 28.2791 28.2791 28.2791 28.2791 28.2791 28.2791 28.2791 28.2791 28.2791 28.2791 28.2791 28.2791 28.2791 28.2791 28.2791 28.2791 28.2791 28.2791 28.2791 28.2791 160.279 226.279 28.2791 116.279 28.2791 28.2791 148.279 28.2791 28.2791 28.2791 37.2791 47.2791 37.2791 28.2791 28.2791 28.2791 28.2791 28.2791 28.2791 28.2791 28.2791 28.2791 28.2791 28.2791 124.279 28.2791 28.2791 28.2791 28.2791 28.2791 28.2791 28.2791 28.2791 28.2791 28.2791 28.2791 28.2791 28.2791 28.2791 28.2791 28.2791 28.2791 28.2791 29.2791 28.2791 492.279 52.2791 58.2791 28.2791 28.2791 28.2791 28.2791 28.2791 28.2791 28.2791 28.2791 28.2791 28.2791 28.2791 28.2791 28.2791 28.2791 28.2791 28.2791 28.2791 28.2791 28.2791 28.2791 28.2791 28.2791 28.2791 28.2791 28.2791 28.2791 28.2791 28.2791 28.2791 28.2791 28.2791 28.2791 28.2791 28.2791 28.2791 28.2791 100.279 78.2791 151.279 28.2791 28.2791 108.279 219.279 28.2791 28.2791 28.2791 98.2791 37.2791 33.2791 28.2791 28.2791 28.2791 28.2791 28.2791 28.2791 28.2791 28.2791 28.2791 28.2791 28.2791 28.2791 28.2791 28.2791 28.2791 28.2791 28.2791 28.2791 31.2791 28.2791 28.2791 28.2791 28.2791 28.2791 28.2791 28.2791 28.2791 28.2791 28.2791 28.2791 211.279 28.2791 28.2791 28.2791 28.2791 28.2791 28.2791 28.2791 28.2791 79.2791 33.2791 28.2791 33.2791 28.2791 28.2791 28.2791 42.2791 28.2791 28.2791 28.2791 28.2791 28.2791 28.2791 28.2791 28.2791 28.2791 28.2791 28.2791 28.2791 28.2791 28.2791 28.2791 28.2791 28.2791 28.2791 28.2791 28.2791 28.2791 28.2791 28.2791 73.2791 28.2791 46.2791 31.2791 52.2791 31.2791 28.2791 31.2791 28.2791 28.2791 100.279 28.2791 28.2791 28.2791 28.2791 28.2791 28.2791 28.2791 28.2791 28.2791 28.2791 28.2791 28.2791 28.2791 28.2791 28.2791 28.2791 28.2791 28.2791 28.2791 28.2791 28.2791 28.2791 28.2791 28.2791 36.2791 28.2791 28.2791 28.2791 28.2791 28.2791 28.2791 75.2791 80.2791 68.2791 28.2791 106.279 28.2791 28.2791 28.2791 28.2791 28.2791 28.2791 28.2791 28.2791 28.2791 28.2791 28.2791 28.2791 28.2791 28.2791 28.2791 28.2791 28.2791 28.2791 28.2791 28.2791 28.2791 28.2791 120.279 28.2791 28.2791 28.2791 28.2791 28.2791 28.2791 28.2791 28.2791 28.2791 28.2791 28.2791 28.2791 28.2791 28.2791 28.2791 90.2791 628.279 28.2791 28.2791 28.2791 28.2791 28.2791 28.2791 28.2791 28.2791 28.2791 51.2791 28.2791 51.2791 28.2791 28.2791 28.2791 28.2791 28.2791 28.2791 245.279 28.2791 32.2791 32.2791 28.2791 28.2791 28.2791 28.2791 82.2791 89.2791 28.2791 35.2791 28.2791 28.2791 28.2791 28.2791 28.2791 28.2791 28.2791 28.2791 28.2791 28.2791 28.2791 195.279 52.2791 28.2791 40.2791 28.2791 28.2791 28.2791 28.2791 28.2791 28.2791 28.2791 28.2791 28.2791 28.2791 28.2791 28.2791 28.2791 28.2791 28.2791 28.2791 346.279 28.2791 28.2791 28.2791 28.2791 28.2791 28.2791 28.2791 28.2791 28.2791 28.2791 28.2791 28.2791 28.2791 28.2791 28.2791 28.2791 28.2791 28.2791 28.2791 28.2791 361.279 178.279 174.279 28.2791 148.279 28.2791 28.2791 28.2791 28.2791 28.2791 28.2791 28.2791 28.2791 28.2791 28.2791 28.2791 28.2791 28.2791 28.2791 28.2791 28.2791 28.2791 28.2791 28.2791 28.2791 28.2791 28.2791 28.2791 29.2791 28.2791 28.2791 28.2791 28.2791 28.2791 28.2791 28.2791 28.2791 28.2791 28.2791 28.2791 28.2791 28.2791 39.2791 28.2791 238.279 28.2791 28.2791 28.2791 28.2791 28.2791 28.2791 28.2791 28.2791 28.2791 28.2791 28.2791 28.2791 28.2791 28.2791 153.279 28.2791 262.279 28.2791 28.2791 28.2791 28.2791 28.2791 28.2791 28.2791 28.2791 28.2791 28.2791 28.2791 28.2791 28.2791 35.2791 212.279 28.2791 28.2791 28.2791 28.2791 28.2791 28.2791 28.2791 28.2791 140.279 85.2791 28.2791 28.2791 28.2791 28.2791 28.2791 70.2791 28.2791 249.279 48.2791 28.2791 28.2791 28.2791 28.2791 29.2791 28.2791 28.2791 37.2791 28.2791 28.2791 114.279 28.2791 28.2791 28.2791 28.2791 28.2791 28.2791 28.2791 28.2791 28.2791 28.2791 28.2791 28.2791 28.2791 28.2791 28.2791 28.2791 28.2791 34.2791 28.2791 28.2791 28.2791 325.279 28.2791 28.2791 28.2791 28.2791 28.2791 44.2791 28.2791 28.2791 28.2791 29.2791 28.2791 28.2791 28.2791 28.2791 28.2791 28.2791 28.2791 28.2791 28.2791 28.2791 28.2791 28.2791 28.2791 28.2791 28.2791 28.2791 28.2791 28.2791 28.2791 28.2791 28.2791 28.2791 28.2791 28.2791 28.2791 28.2791 28.2791 28.2791 28.2791 28.2791 28.2791 28.2791 28.2791 28.2791 28.2791 28.2791 28.2791 28.2791 28.2791 28.2791 88.2791 28.2791 28.2791 28.2791 28.2791 28.2791 28.2791 89.2791 28.2791 28.2791 28.2791 28.2791 28.2791 28.2791 28.2791 28.2791 28.2791 28.2791 28.2791 28.2791 28.2791 28.2791 28.2791 28.2791 38.2791 28.2791 28.2791 113.279 68.2791 28.2791 28.2791 28.2791 28.2791 28.2791 28.2791 42.2791 28.2791 28.2791 28.2791 28.2791 28.2791 28.2791 28.2791 28.2791 28.2791 28.2791 28.2791 28.2791 28.2791 28.2791 28.2791 33.2791 28.2791 28.2791 28.2791 28.2791 28.2791 28.2791 28.2791 28.2791 28.2791 28.2791 28.2791 28.2791 28.2791 28.2791 28.2791 28.2791 28.2791 28.2791 28.2791 28.2791 518.279 28.2791 28.2791 28.2791 76.2791 28.2791 28.2791 28.2791 28.2791 28.2791 28.2791 28.2791 28.2791 28.2791 28.2791 28.2791 28.2791 28.2791 28.2791 28.2791 28.2791 28.2791 28.2791 28.2791 28.2791 28.2791 28.2791 28.2791 28.2791 28.2791 28.2791 28.2791 28.2791 28.2791 28.2791 28.2791 28.2791 28.2791 28.2791 28.2791 28.2791 30.2791 434.279 202.279 28.2791 28.2791 28.2791 28.2791 28.2791 28.2791 28.2791 28.2791 28.2791 28.2791 28.2791 28.2791 28.2791 28.2791 28.2791 28.2791 28.2791 28.2791 28.2791 42.2791 28.2791 28.2791 28.2791 28.2791 28.2791 28.2791 28.2791 28.2791 28.2791 28.2791 28.2791 28.2791 28.2791 28.2791 28.2791 35.2791 28.2791 28.2791 28.2791 36.2791 154.279 28.2791 28.2791 28.2791 28.2791 28.2791 28.2791 31.2791 28.2791 28.2791 28.2791 28.2791 28.2791 28.2791 28.2791 28.2791 28.2791 28.2791 28.2791 28.2791 28.2791 32.2791 28.2791 28.2791 28.2791 28.2791 28.2791 28.2791 28.2791 28.2791 28.2791 28.2791 30.2791 28.2791 28.2791 28.2791 28.2791 28.2791 28.2791 28.2791 28.2791 442.279 46.2791 28.2791 36.2791 28.2791 28.2791 28.2791 28.2791 28.2791 28.2791 28.2791 28.2791 28.2791 28.2791 28.2791 28.2791 28.2791 28.2791 210.279 28.2791 28.2791 28.2791 30.2791 28.2791 28.2791 28.2791 28.2791 28.2791 28.2791 28.2791 28.2791 118.279 28.2791 28.2791 28.2791 28.2791 28.2791 28.2791 28.2791 28.2791 28.2791 28.2791 28.2791 41.2791 28.2791 28.2791 28.2791 28.2791 28.2791 28.2791 28.2791 28.2791 28.2791 28.2791 28.2791 28.2791 30.2791 28.2791 28.2791 28.2791 28.2791 28.2791 28.2791 28.2791 40.2791 28.2791 28.2791 28.2791 28.2791 28.2791 28.2791 28.2791 28.2791 28.2791 28.2791 28.2791 28.2791 28.2791 28.2791 28.2791 28.2791 28.2791 28.2791 28.2791 28.2791 190.279 28.2791 28.2791 36.2791 28.2791 124.279 28.2791 28.2791 28.2791 28.2791 28.2791 28.2791 28.2791 28.2791 28.2791 28.2791 28.2791 28.2791 28.2791 28.2791 28.2791 28.2791 28.2791 28.2791 28.2791 28.2791 28.2791 28.2791 28.2791 28.2791 28.2791 28.2791 28.2791 28.2791 28.2791 28.2791 28.2791 28.2791 28.2791 28.2791 28.2791 28.2791 28.2791 79.2791 28.2791 28.2791 28.2791 28.2791 28.2791 28.2791 28.2791 28.2791 28.2791 28.2791 28.2791 28.2791 28.2791 28.2791 28.2791 28.2791 28.2791 28.2791 28.2791 28.2791 40.2791 28.2791 28.2791 28.2791 28.2791 28.2791 28.2791 28.2791 28.2791 28.2791 28.2791 72.2791 28.2791 28.2791 28.2791 28.2791 28.2791 28.2791 28.2791 28.2791 28.2791 101.279 28.2791 28.2791 28.2791 30.2791 52.2791 392.279 30.2791 28.2791 28.2791 28.2791 28.2791 28.2791 28.2791 28.2791 28.2791 28.2791 28.2791 28.2791 28.2791 28.2791 28.2791 28.2791 28.2791 28.2791 28.2791 28.2791 28.2791 28.2791 28.2791 28.2791 28.2791 28.2791 28.2791 28.2791 28.2791 28.2791 48.2791 28.2791 28.2791 28.2791 28.2791 28.2791 28.2791 28.2791 28.2791 28.2791 28.2791 28.2791 28.2791 28.2791 28.2791 28.2791 28.2791 28.2791 28.2791 28.2791 28.2791 28.2791 46.2791 28.2791 28.2791 29.2791 28.2791 32.2791 28.2791 37.2791 28.2791 28.2791 28.2791 28.2791 285.279 28.2791 28.2791 28.2791 28.2791 28.2791 28.2791 28.2791 28.2791 28.2791 28.2791 28.2791 62.2791 28.2791 28.2791 28.2791 28.2791 28.2791 28.2791 28.2791 28.2791 28.2791 28.2791 28.2791 28.2791 28.2791 31.2791 35.2791 184.279 28.2791 28.2791 28.2791 28.2791 28.2791 28.2791 28.2791 28.2791 28.2791 28.2791 28.2791 28.2791 28.2791 28.2791 28.2791 28.2791 28.2791 28.2791 78.2791 28.2791 28.2791 28.2791 28.2791 28.2791 28.2791 28.2791 28.2791 28.2791 28.2791 28.2791 28.2791 28.2791 28.2791 28.2791 28.2791 28.2791 28.2791 28.2791 28.2791 68.2791 58.2791 36.2791 28.2791 28.2791 28.2791 28.2791 28.2791 28.2791 28.2791 28.2791 28.2791 28.2791 28.2791 28.2791 28.2791 29.2791 28.2791 28.2791 28.2791 28.2791 28.2791 28.2791 63.2791 28.2791 28.2791 28.2791 28.2791 28.2791 28.2791 29.2791 28.2791 28.2791 28.2791 28.2791 28.2791 28.2791 52.2791 28.2791 28.2791 28.2791 52.2791 626.279 100.279 490.279 35.2791 28.2791 28.2791 50.2791 28.2791 28.2791 28.2791 28.2791 28.2791 28.2791 28.2791 28.2791 28.2791 28.2791 28.2791 28.2791 28.2791 28.2791 28.2791 28.2791 28.2791 28.2791 28.2791 28.2791 28.2791 28.2791 28.2791 28.2791 28.2791 28.2791 28.2791 28.2791 28.2791 28.2791 28.2791 28.2791 28.2791 28.2791 48.2791 111.279 200.279 28.2791 28.2791 28.2791 28.2791 28.2791 28.2791 28.2791 28.2791 28.2791 42.2791 28.2791 28.2791 28.2791 28.2791 28.2791 28.2791 28.2791 28.2791 42.2791 114.279 166.279 28.2791 28.2791 28.2791 28.2791 28.2791 28.2791 28.2791 28.2791 28.2791 28.2791 28.2791 28.2791 28.2791 28.2791 28.2791 28.2791 28.2791 28.2791 47.2791 34.2791 28.2791 28.2791 28.2791 28.2791 28.2791 28.2791 28.2791 28.2791 28.2791 28.2791 28.2791 28.2791 28.2791 28.2791 28.2791 28.2791 28.2791 28.2791 28.2791 28.2791 180.279 81.2791 28.2791 28.2791 28.2791 28.2791 28.2791 28.2791 28.2791 28.2791 28.2791 28.2791 
rewards of Offsets elements: 0 0 0 0 0 0 318 0 0 0 0 121 4 1015 0 0 0 0 0 0 0 919 0 0 0 0 975 1049 0 0 0 0 38 70 0 0 0 0 0 0 0 0 563 95 0 0 0 26 0 0 431 0 0 0 0 0 0 0 0 0 0 0 0 573 0 0 0 0 0 0 0 0 0 1027 178 154 0 0 0 0 43 0 0 0 0 0 0 0 0 0 0 0 0 0 0 719 0 0 0 0 0 1392 0 0 0 198 0 0 0 0 0 0 665 400 259 0 120 0 0 0 0 0 1213 0 0 0 0 0 0 0 0 0 415 0 0 26 0 0 0 0 0 0 0 0 0 0 0 0 0 0 0 0 0 16 0 1 0 0 3 0 0 0 0 0 0 210 249 0 0 0 0 0 0 0 171 179 3 0 0 0 441 0 0 365 0 0 2 0 0 0 297 0 0 0 0 0 9 0 0 0 253 0 0 0 0 0 403 488 0 0 0 0 0 0 0 0 0 0 42 0 2 0 0 0 0 0 0 0 0 0 0 0 0 295 0 0 0 0 18 0 20 0 24 147 0 0 0 0 0 2 0 0 0 0 0 0 0 0 0 0 0 0 0 0 0 0 0 0 0 0 0 0 0 0 0 0 912 68 0 0 0 0 0 0 0 2 0 0 0 0 3 0 0 0 0 126 0 0 0 1 0 0 3 7 0 0 0 0 0 0 0 0 0 0 131 0 0 0 0 0 0 0 0 0 0 0 330 73 0 0 0 0 0 0 0 0 0 0 0 0 21 0 0 0 12 23 0 0 0 0 0 0 0 0 0 0 0 0 0 0 0 0 0 0 0 0 0 0 0 313 54 128 0 7 52 10 0 0 8 0 0 0 602 279 0 0 0 0 0 0 0 0 0 0 0 0 0 2805 0 0 0 0 0 0 0 0 0 0 0 0 0 430 288 60 0 0 0 0 0 0 0 0 1000 0 216 3 0 0 7 0 0 0 208 0 0 0 2 0 0 0 0 0 0 0 0 0 0 0 0 0 0 0 2 185 252 0 0 156 0 0 0 0 0 0 0 0 234 0 0 0 0 0 0 0 0 0 0 0 0 0 0 0 0 0 0 0 0 0 0 0 0 0 0 0 0 9 0 0 0 0 0 0 49 0 0 0 0 1 48 0 0 0 0 0 0 0 1 0 0 0 0 0 0 0 0 0 0 0 0 0 0 0 0 0 0 0 0 86 0 1 1 0 0 40 0 0 0 0 0 12 0 0 0 0 0 0 0 0 0 0 0 0 0 218 0 0 0 0 59 0 0 0 0 32 0 0 0 0 0 4 0 0 0 0 0 0 0 0 0 0 0 185 0 0 0 0 0 0 0 0 0 0 0 0 0 0 0 0 0 0 6 0 0 0 0 0 0 0 0 9 176 142 0 240 40 0 0 0 0 0 0 0 547 0 2 0 0 0 0 0 0 0 2 0 0 0 0 0 0 0 0 0 0 0 0 0 0 0 0 0 0 0 8 128 0 0 0 0 0 0 0 0 0 1 0 0 0 0 0 0 0 0 0 0 0 98 0 0 0 0 0 0 74 0 0 0 0 0 0 0 0 0 0 671 510 20 0 27 0 0 0 0 0 0 0 0 21 0 2 0 0 0 0 0 0 47 0 0 0 0 0 0 0 0 0 0 0 0 0 0 0 0 0 0 0 0 132 198 0 88 0 0 120 0 0 0 9 19 9 0 0 0 0 0 0 0 0 0 0 0 96 0 0 0 0 0 0 0 0 0 0 0 0 0 0 0 0 0 0 1 0 464 24 30 0 0 0 0 0 0 0 0 0 0 0 0 0 0 0 0 0 0 0 0 0 0 0 0 0 0 0 0 0 0 0 0 0 0 0 0 72 50 123 0 0 80 191 0 0 0 70 9 5 0 0 0 0 0 0 0 0 0 0 0 0 0 0 0 0 0 0 3 0 0 0 0 0 0 0 0 0 0 0 183 0 0 0 0 0 0 0 0 51 5 0 5 0 0 0 14 0 0 0 0 0 0 0 0 0 0 0 0 0 0 0 0 0 0 0 0 0 0 0 45 0 18 3 24 3 0 3 0 0 72 0 0 0 0 0 0 0 0 0 0 0 0 0 0 0 0 0 0 0 0 0 0 0 0 8 0 0 0 0 0 0 47 52 40 0 78 0 0 0 0 0 0 0 0 0 0 0 0 0 0 0 0 0 0 0 0 0 0 92 0 0 0 0 0 0 0 0 0 0 0 0 0 0 0 62 600 0 0 0 0 0 0 0 0 0 23 0 23 0 0 0 0 0 0 217 0 4 4 0 0 0 0 54 61 0 7 0 0 0 0 0 0 0 0 0 0 0 167 24 0 12 0 0 0 0 0 0 0 0 0 0 0 0 0 0 0 0 318 0 0 0 0 0 0 0 0 0 0 0 0 0 0 0 0 0 0 0 0 333 150 146 0 120 0 0 0 0 0 0 0 0 0 0 0 0 0 0 0 0 0 0 0 0 0 0 0 1 0 0 0 0 0 0 0 0 0 0 0 0 0 11 0 210 0 0 0 0 0 0 0 0 0 0 0 0 0 0 125 0 234 0 0 0 0 0 0 0 0 0 0 0 0 0 7 184 0 0 0 0 0 0 0 0 112 57 0 0 0 0 0 42 0 221 20 0 0 0 0 1 0 0 9 0 0 86 0 0 0 0 0 0 0 0 0 0 0 0 0 0 0 0 0 6 0 0 0 297 0 0 0 0 0 16 0 0 0 1 0 0 0 0 0 0 0 0 0 0 0 0 0 0 0 0 0 0 0 0 0 0 0 0 0 0 0 0 0 0 0 0 0 0 0 0 0 0 0 0 60 0 0 0 0 0 0 61 0 0 0 0 0 0 0 0 0 0 0 0 0 0 0 0 10 0 0 85 40 0 0 0 0 0 0 14 0 0 0 0 0 0 0 0 0 0 0 0 0 0 0 5 0 0 0 0 0 0 0 0 0 0 0 0 0 0 0 0 0 0 0 0 490 0 0 0 48 0 0 0 0 0 0 0 0 0 0 0 0 0 0 0 0 0 0 0 0 0 0 0 0 0 0 0 0 0 0 0 0 0 0 0 0 2 406 174 0 0 0 0 0 0 0 0 0 0 0 0 0 0 0 0 0 0 0 14 0 0 0 0 0 0 0 0 0 0 0 0 0 0 0 7 0 0 0 8 126 0 0 0 0 0 0 3 0 0 0 0 0 0 0 0 0 0 0 0 0 4 0 0 0 0 0 0 0 0 0 0 2 0 0 0 0 0 0 0 0 414 18 0 8 0 0 0 0 0 0 0 0 0 0 0 0 0 0 182 0 0 0 2 0 0 0 0 0 0 0 0 90 0 0 0 0 0 0 0 0 0 0 0 13 0 0 0 0 0 0 0 0 0 0 0 0 2 0 0 0 0 0 0 0 12 0 0 0 0 0 0 0 0 0 0 0 0 0 0 0 0 0 0 0 0 162 0 0 8 0 96 0 0 0 0 0 0 0 0 0 0 0 0 0 0 0 0 0 0 0 0 0 0 0 0 0 0 0 0 0 0 0 0 0 0 0 0 0 51 0 0 0 0 0 0 0 0 0 0 0 0 0 0 0 0 0 0 0 0 12 0 0 0 0 0 0 0 0 0 0 44 0 0 0 0 0 0 0 0 0 73 0 0 0 2 24 364 2 0 0 0 0 0 0 0 0 0 0 0 0 0 0 0 0 0 0 0 0 0 0 0 0 0 0 0 0 0 20 0 0 0 0 0 0 0 0 0 0 0 0 0 0 0 0 0 0 0 0 0 18 0 0 1 0 4 0 9 0 0 0 0 257 0 0 0 0 0 0 0 0 0 0 0 34 0 0 0 0 0 0 0 0 0 0 0 0 0 3 7 156 0 0 0 0 0 0 0 0 0 0 0 0 0 0 0 0 0 0 50 0 0 0 0 0 0 0 0 0 0 0 0 0 0 0 0 0 0 0 0 40 30 8 0 0 0 0 0 0 0 0 0 0 0 0 0 1 0 0 0 0 0 0 35 0 0 0 0 0 0 1 0 0 0 0 0 0 24 0 0 0 24 598 72 462 7 0 0 22 0 0 0 0 0 0 0 0 0 0 0 0 0 0 0 0 0 0 0 0 0 0 0 0 0 0 0 0 0 0 0 0 0 0 20 83 172 0 0 0 0 0 0 0 0 0 14 0 0 0 0 0 0 0 0 14 86 138 0 0 0 0 0 0 0 0 0 0 0 0 0 0 0 0 0 0 19 6 0 0 0 0 0 0 0 0 0 0 0 0 0 0 0 0 0 0 0 0 152 53 0 0 0 0 0 0 0 0 0 0 Printing Sanity3
offset_index value1926
offset list size1926
reward size1926
potential size1926
-----------------------------------------------------------------------------------------------------------------------------------------------------------------------------------------------------

DRAM Statistics
 CHANNEL 0
 RQ ROW_BUFFER_HIT:        216  ROW_BUFFER_MISS:       1366
 DBUS_CONGESTED:          0
 WQ ROW_BUFFER_HIT:          2  ROW_BUFFER_MISS:         88  FULL:          0

 AVG_CONGESTED_CYCLE: -
 All warmup complete: 2
Channel 0 Bank busy for read cycles: 0
Channel 0 Bank busy for write cycles: 0
Channel 0
Rank 0
0banks busy for read cycles: 647579884
0banks busy for write cycles: 81
1banks busy for read cycles: 175281
1banks busy for write cycles: 12036
2banks busy for read cycles: 11141
2banks busy for write cycles: 683
3banks busy for read cycles: 4687
3banks busy for write cycles: 278
4banks busy for read cycles: 1019
4banks busy for write cycles: 0
5banks busy for read cycles: 0
5banks busy for write cycles: 0
6banks busy for read cycles: 0
6banks busy for write cycles: 0
7banks busy for read cycles: 0
7banks busy for write cycles: 0
8banks busy for read cycles: 0
8banks busy for write cycles: 0

CPU 0 Branch Prediction Accuracy: 99.8875% MPKI: 0.202445 Average ROB Occupancy at Mispredict: 29.6559
Branch types
NOT_BRANCH: 164016253 82.0081%
BRANCH_DIRECT_JUMP: 1877215 0.938608%
BRANCH_INDIRECT: 12063358 6.03168%
BRANCH_CONDITIONAL: 12759769 6.37988%
BRANCH_DIRECT_CALL: 3903287 1.95164%
BRANCH_INDIRECT_CALL: 738410 0.369205%
BRANCH_RETURN: 4641677 2.32084%
BRANCH_OTHER: 0 0%

DRAM PAGES: 1048576
Allocated PAGES: 1820
