
*** ChampSim Multicore Out-of-Order Simulator ***

Warmup Instructions: 50000000
Simulation Instructions: 200000000
Number of CPUs: 1
LLC sets: 2048
LLC ways: 16
Off-chip DRAM Size: 4096 MB Channels: 1 Width: 64-bit Data Rate: 6400 MT/s
CPU 0 runs traces/spec2k17/srv_11.champsimtrace.xz
.xz
BTB has LRU replacement policy
ITLB has LRU replacement policy
DTLB has LRU replacement policy
STLB has LRU replacement policy
L1I has LRU replacement policy
L1D has LRU replacement policy
Initialize SRRIP state for L2C
Initialize DRRIP state for LLC
Heartbeat CPU 0 instructions: 10000000 cycles: 3235487 heartbeat IPC: 3.09072 cumulative IPC: 3.09072 (Simulation time: 0 hr 0 min 42 sec) 
Heartbeat CPU 0 instructions: 20000002 cycles: 7452693 heartbeat IPC: 2.37124 cumulative IPC: 2.68359 (Simulation time: 0 hr 1 min 31 sec) 
Heartbeat CPU 0 instructions: 30000001 cycles: 10225672 heartbeat IPC: 3.60623 cumulative IPC: 2.93379 (Simulation time: 0 hr 2 min 6 sec) 
*** Reached end of trace for Core: 0 Repeating trace: traces/spec2k17/srv_11.champsimtrace.xz
Heartbeat CPU 0 instructions: 40000001 cycles: 13313503 heartbeat IPC: 3.23852 cumulative IPC: 3.00447 (Simulation time: 0 hr 2 min 46 sec) 
Heartbeat CPU 0 instructions: 50000000 cycles: 17669485 heartbeat IPC: 2.29569 cumulative IPC: 2.82974 (Simulation time: 0 hr 3 min 39 sec) 

Warmup complete CPU 0 instructions: 50000004 cycles: 17669486 (Simulation time: 0 hr 3 min 39 sec) 

Offsets elements: 
Potential of Offsets elements: 
rewards of Offsets elements: 
Printing Sanity1
offset list size878
Offsets elements: 
Potential of Offsets elements: 
rewards of Offsets elements: 4003 0 0 0 0 0 0 0 0 0 0 4217 0 0 0 0 0 0 0 338 4 25 49 100 0 0 48 132 2266 0 0 0 0 0 0 16 36 16 16 0 0 0 3364 0 0 0 0 0 0 0 0 0 0 0 0 0 0 0 0 0 0 0 0 0 0 0 0 0 0 0 0 0 0 0 0 0 0 0 0 0 0 0 0 0 0 30 0 0 0 0 0 0 0 0 0 0 9 150 0 0 0 0 6 0 0 0 0 0 0 0 0 0 0 0 0 0 0 0 0 0 0 0 0 0 0 0 0 0 0 0 0 0 0 0 0 0 0 0 0 0 0 0 0 0 0 0 0 0 0 0 0 0 0 0 0 0 0 0 0 0 0 0 0 0 0 0 0 0 0 0 0 0 0 0 0 0 0 0 0 0 0 0 0 0 0 0 0 0 0 0 0 0 0 0 0 0 0 0 0 0 0 0 0 0 0 0 0 0 0 0 0 0 0 0 0 0 0 0 0 0 0 0 0 0 0 0 0 0 0 0 0 0 0 0 0 0 0 0 0 0 0 0 0 0 0 0 0 0 0 0 0 0 0 0 0 0 0 0 0 0 0 0 0 0 0 0 0 0 0 0 0 0 0 0 0 0 0 0 0 0 284 0 0 0 0 0 0 0 0 0 0 0 0 0 0 0 0 0 0 0 0 0 0 0 0 0 0 0 0 0 0 0 0 0 0 0 0 0 0 0 0 0 0 0 0 0 0 0 0 1243 0 0 0 0 0 0 0 0 0 0 0 0 0 0 0 0 0 0 0 0 0 0 0 0 0 0 0 0 0 0 0 0 0 0 0 0 0 0 0 0 0 0 0 0 0 0 0 0 0 0 0 0 0 0 0 0 0 0 0 0 0 0 0 0 0 0 0 0 0 0 0 0 0 0 0 0 0 0 0 0 0 0 0 0 0 0 0 0 0 0 0 0 0 0 0 0 33 0 0 0 0 0 0 0 0 0 0 0 0 0 0 0 0 2028 0 0 0 0 0 0 0 0 0 0 0 0 0 4 0 0 7 0 0 0 0 0 0 0 0 0 0 0 0 0 0 0 0 0 0 0 0 0 0 0 0 0 0 312 592 0 0 0 0 0 0 0 0 0 0 0 0 0 0 0 0 0 0 0 0 0 0 0 0 0 0 0 0 0 0 0 0 0 0 0 0 0 0 0 0 0 0 0 0 0 0 0 0 0 0 0 0 0 0 0 0 0 0 0 0 0 0 0 0 0 0 0 0 0 0 0 0 0 0 0 0 0 0 0 0 0 0 0 0 0 0 0 0 0 0 0 19 0 0 0 0 0 0 0 0 0 0 0 0 0 0 0 0 0 0 0 0 0 0 0 0 0 0 0 0 0 0 0 0 0 0 0 0 0 0 0 0 0 0 0 0 0 0 0 0 0 0 0 0 0 0 0 0 0 0 0 0 0 0 0 0 0 0 0 0 0 0 0 0 0 0 0 0 0 0 0 0 0 0 0 0 0 0 0 0 0 0 0 0 0 0 0 0 0 0 0 0 0 0 0 0 0 0 0 0 0 0 0 0 0 0 0 0 0 0 0 0 0 0 0 0 0 0 0 0 0 0 0 0 0 0 0 1601 624 0 0 0 0 0 0 0 0 0 0 0 0 13 0 0 0 0 0 0 0 0 0 0 0 0 0 0 0 0 0 0 0 0 0 0 0 0 0 0 0 0 0 0 0 0 0 0 0 0 0 0 0 0 0 0 0 0 2 0 0 0 0 0 0 0 0 0 0 0 0 0 0 0 0 0 0 0 0 0 0 0 0 0 0 0 0 0 0 0 0 0 0 0 0 0 0 0 0 0 0 0 0 0 0 4 0 0 0 0 0 0 0 0 0 0 0 0 0 0 0 0 0 0 0 0 0 0 0 0 0 0 0 0 0 0 0 0 0 0 0 0 0 0 0 0 0 0 0 0 0 0 0 0 0 0 0 0 0 0 0 
Printing Sanity2
Heartbeat CPU 0 instructions: 60000003 cycles: 41296755 heartbeat IPC: 0.42324 cumulative IPC: 0.42324 (Simulation time: 0 hr 4 min 44 sec) 
*** Reached end of trace for Core: 0 Repeating trace: traces/spec2k17/srv_11.champsimtrace.xz
Heartbeat CPU 0 instructions: 70000000 cycles: 65173799 heartbeat IPC: 0.418812 cumulative IPC: 0.421014 (Simulation time: 0 hr 5 min 46 sec) 
Heartbeat CPU 0 instructions: 80000001 cycles: 105965552 heartbeat IPC: 0.245148 cumulative IPC: 0.339766 (Simulation time: 0 hr 7 min 20 sec) 
Heartbeat CPU 0 instructions: 90000003 cycles: 130668690 heartbeat IPC: 0.404807 cumulative IPC: 0.353985 (Simulation time: 0 hr 8 min 24 sec) 
*** Reached end of trace for Core: 0 Repeating trace: traces/spec2k17/srv_11.champsimtrace.xz
Heartbeat CPU 0 instructions: 100000003 cycles: 154130423 heartbeat IPC: 0.426226 cumulative IPC: 0.366405 (Simulation time: 0 hr 9 min 26 sec) 
Heartbeat CPU 0 instructions: 110000000 cycles: 193891770 heartbeat IPC: 0.2515 cumulative IPC: 0.340479 (Simulation time: 0 hr 10 min 54 sec) 
Heartbeat CPU 0 instructions: 120000000 cycles: 219804461 heartbeat IPC: 0.385911 cumulative IPC: 0.346303 (Simulation time: 0 hr 12 min 1 sec) 
*** Reached end of trace for Core: 0 Repeating trace: traces/spec2k17/srv_11.champsimtrace.xz
Heartbeat CPU 0 instructions: 130000002 cycles: 243226178 heartbeat IPC: 0.426954 cumulative IPC: 0.354678 (Simulation time: 0 hr 13 min 2 sec) 
Heartbeat CPU 0 instructions: 140000002 cycles: 281721523 heartbeat IPC: 0.259772 cumulative IPC: 0.340842 (Simulation time: 0 hr 14 min 28 sec) 
Heartbeat CPU 0 instructions: 150000002 cycles: 308663548 heartbeat IPC: 0.371167 cumulative IPC: 0.34365 (Simulation time: 0 hr 15 min 38 sec) 
*** Reached end of trace for Core: 0 Repeating trace: traces/spec2k17/srv_11.champsimtrace.xz
Heartbeat CPU 0 instructions: 160000003 cycles: 332247842 heartbeat IPC: 0.424011 cumulative IPC: 0.349674 (Simulation time: 0 hr 16 min 38 sec) 
Heartbeat CPU 0 instructions: 170000000 cycles: 369519036 heartbeat IPC: 0.268304 cumulative IPC: 0.341055 (Simulation time: 0 hr 18 min 0 sec) 
Heartbeat CPU 0 instructions: 180000001 cycles: 397673297 heartbeat IPC: 0.355186 cumulative IPC: 0.342102 (Simulation time: 0 hr 19 min 7 sec) 
*** Reached end of trace for Core: 0 Repeating trace: traces/spec2k17/srv_11.champsimtrace.xz
Heartbeat CPU 0 instructions: 190000003 cycles: 421062766 heartbeat IPC: 0.427543 cumulative IPC: 0.347056 (Simulation time: 0 hr 20 min 7 sec) 
Heartbeat CPU 0 instructions: 200000000 cycles: 457278050 heartbeat IPC: 0.276126 cumulative IPC: 0.341213 (Simulation time: 0 hr 21 min 29 sec) 
Heartbeat CPU 0 instructions: 210000001 cycles: 486621648 heartbeat IPC: 0.34079 cumulative IPC: 0.341186 (Simulation time: 0 hr 22 min 40 sec) 
*** Reached end of trace for Core: 0 Repeating trace: traces/spec2k17/srv_11.champsimtrace.xz
Heartbeat CPU 0 instructions: 220000000 cycles: 510069927 heartbeat IPC: 0.42647 cumulative IPC: 0.345247 (Simulation time: 0 hr 23 min 34 sec) 
Heartbeat CPU 0 instructions: 230000000 cycles: 545009461 heartbeat IPC: 0.286209 cumulative IPC: 0.341336 (Simulation time: 0 hr 24 min 52 sec) 
Heartbeat CPU 0 instructions: 240000002 cycles: 575582146 heartbeat IPC: 0.327089 cumulative IPC: 0.340555 (Simulation time: 0 hr 26 min 6 sec) 
*** Reached end of trace for Core: 0 Repeating trace: traces/spec2k17/srv_11.champsimtrace.xz
Heartbeat CPU 0 instructions: 250000002 cycles: 598997799 heartbeat IPC: 0.427065 cumulative IPC: 0.34404 (Simulation time: 0 hr 27 min 9 sec) 
Finished CPU 0 instructions: 200000002 cycles: 581328314 cumulative IPC: 0.34404 (Simulation time: 0 hr 27 min 9 sec) 

ChampSim completed all CPUs

Region of Interest Statistics

CPU 0 cumulative IPC: 0.34404 instructions: 200000002 cycles: 581328314
ITLB TOTAL     ACCESS:   37990485  HIT:   37451008  MISS:     539477  HIT %:      98.58  MISS %:    1.42003   MPKI: 2.69738
ITLB LOAD TRANSLATION ACCESS:   37990485  HIT:   37451008  MISS:     539477  HIT %:      98.58  MISS %:    1.42003   MPKI: 2.69738
ITLB PREFETCH  REQUESTED:          0  ISSUED:          0  USEFUL:          0  USELESS:          0
ITLB USEFUL LOAD PREFETCHES:          0 PREFETCH ISSUED TO LOWER LEVEL:          0  ACCURACY: -nan
ITLB TIMELY PREFETCHES:          0 LATE PREFETCHES: 0 DROPPED PREFETCHES: 0
ITLB PREFETCHES SAME FILL-ORIGIN LEVEL: 0 DIFFERENT FILL-ORIGIN LEVEL: 0
ITLB AVERAGE MISS LATENCY: 15.9108 cycles
ITLB RQ	ACCESS:   43892984	FORWARD:          0	MERGED:    5773811	TO_CACHE:   38119173

DTLB TOTAL     ACCESS:   43856593  HIT:   34869981  MISS:    8986612  HIT %:    79.5091  MISS %:    20.4909   MPKI: 44.9331
DTLB LOAD TRANSLATION ACCESS:   43856593  HIT:   34869981  MISS:    8986612  HIT %:    79.5091  MISS %:    20.4909   MPKI: 44.9331
DTLB PREFETCH  REQUESTED:          0  ISSUED:          0  USEFUL:          0  USELESS:          0
DTLB USEFUL LOAD PREFETCHES:          0 PREFETCH ISSUED TO LOWER LEVEL:          0  ACCURACY: -nan
DTLB TIMELY PREFETCHES:          0 LATE PREFETCHES: 0 DROPPED PREFETCHES: 0
DTLB PREFETCHES SAME FILL-ORIGIN LEVEL: 0 DIFFERENT FILL-ORIGIN LEVEL: 0
DTLB AVERAGE MISS LATENCY: 9.9863 cycles
DTLB RQ	ACCESS:   58946240	FORWARD:          0	MERGED:   14878624	TO_CACHE:   44067616

STLB TOTAL     ACCESS:    9526458  HIT:    9212233  MISS:     314225  HIT %:    96.7016  MISS %:    3.29845   MPKI: 1.57112
STLB LOAD TRANSLATION ACCESS:    9526089  HIT:    9211864  MISS:     314225  HIT %:    96.7014  MISS %:    3.29857   MPKI: 1.57112
STLB TRANSLATION FROM L1D PREFETCHER ACCESS:        369  HIT:        369  MISS:          0  HIT %:        100  MISS %:          0   MPKI: 0
STLB PREFETCH  REQUESTED:          0  ISSUED:          0  USEFUL:          0  USELESS:          0
STLB USEFUL LOAD PREFETCHES:          0 PREFETCH ISSUED TO LOWER LEVEL:          0  ACCURACY: -nan
STLB TIMELY PREFETCHES:          0 LATE PREFETCHES: 0 DROPPED PREFETCHES: 0
STLB PREFETCHES SAME FILL-ORIGIN LEVEL: 0 DIFFERENT FILL-ORIGIN LEVEL: 0
STLB AVERAGE MISS LATENCY: 39.8553 cycles
STLB RQ	ACCESS:    9526472	FORWARD:          0	MERGED:         14	TO_CACHE:    9526458

STLB Hit, L1D data hit: 0
STLB Hit, L2C data hit: 0
STLB Hit, LLC data hit: 0
STLB Hit, LLC data miss: 0
STLB STLB hints to L2: 0
L1D TOTAL     ACCESS:   58534887  HIT:   46174462  MISS:   12360425  HIT %:    78.8837  MISS %:    21.1163   MPKI: 61.8021
L1D LOAD      ACCESS:   41014067  HIT:   29024974  MISS:   11989093  HIT %:    70.7683  MISS %:    29.2317   MPKI: 59.9455
L1D RFO       ACCESS:   17520437  HIT:   17149135  MISS:     371302  HIT %:    97.8807  MISS %:    2.11925   MPKI: 1.85651
L1D PREFETCH  ACCESS:        383  HIT:        353  MISS:         30  HIT %:    92.1671  MISS %:     7.8329   MPKI: 0.00015
AGUS PREFETCH L1 MISS: 0
L1D PREFETCH  REQUESTED:        781  ISSUED:        781  USEFUL:          6  USELESS:         24
L1D USEFUL LOAD PREFETCHES:          6 PREFETCH ISSUED TO LOWER LEVEL:         30  ACCURACY: 20
L1D TIMELY PREFETCHES:          6 LATE PREFETCHES: 0 DROPPED PREFETCHES: 0
L1D PREFETCHES SAME FILL-ORIGIN LEVEL: 30 DIFFERENT FILL-ORIGIN LEVEL: 0
L1D AVERAGE MISS LATENCY: 19.833 cycles
L1D RQ	ACCESS:   54021121	FORWARD:          0	MERGED:   12738570	TO_CACHE:   41116680
L1D WQ	ACCESS:   18064452	FORWARD:     165871	MERGED:     234892	TO_CACHE:   17829560
L1D PQ	ACCESS:        398	FORWARD:          0	MERGED:         15	TO_CACHE:        383

L1D UNIQUE REGIONS ACCESSED: 0
L1D REGIONS CONFLICTS: 0
L1D Cross Page Prefetch Requests: 0
L1D Same Page Prefetch Requests: 398
L1D ROI Sum of L1D PQ occupancy: 4945
L1D PREFETCHES PUSHED FROM L2C: 0
L1I TOTAL     ACCESS:   42777432  HIT:   39355290  MISS:    3422142  HIT %:    92.0001  MISS %:    7.99988   MPKI: 17.1107
L1I LOAD      ACCESS:   42777432  HIT:   39355290  MISS:    3422142  HIT %:    92.0001  MISS %:    7.99988   MPKI: 17.1107
L1I PREFETCH  REQUESTED:          0  ISSUED:          0  USEFUL:          0  USELESS:          0
L1I USEFUL LOAD PREFETCHES:          0 PREFETCH ISSUED TO LOWER LEVEL:          0  ACCURACY: -nan
L1I TIMELY PREFETCHES:          0 LATE PREFETCHES: 0 DROPPED PREFETCHES: 0
L1I PREFETCHES SAME FILL-ORIGIN LEVEL: 0 DIFFERENT FILL-ORIGIN LEVEL: 0
L1I AVERAGE MISS LATENCY: 28.0826 cycles
L1I RQ	ACCESS:   65989612	FORWARD:          0	MERGED:   22096628	TO_CACHE:   43892984

BTB TOTAL     ACCESS:   33562539  HIT:   29061289  MISS:    4501250  HIT %:    86.5885  MISS %:    13.4115   MPKI: 22.5062
BTB BRANCH_DIRECT_JUMP	ACCESS:    1685269  HIT:    1483558  MISS:     201711
BTB BRANCH_INDIRECT	ACCESS:   19828015  HIT:   17476346  MISS:    2351669
BTB BRANCH_CONDITIONAL	ACCESS:    4608066  HIT:    4287796  MISS:     320270
BTB BRANCH_DIRECT_CALL	ACCESS:    2993939  HIT:    2599188  MISS:     394751
BTB BRANCH_INDIRECT_CALL	ACCESS:     724221  HIT:     681906  MISS:      42315
BTB BRANCH_RETURN	ACCESS:    3723029  HIT:    2532495  MISS:    1190534
BTB BRANCH_OTHER ACCESS:          0  HIT:          0  MISS:          0

L2C TOTAL     ACCESS:   16988486  HIT:   14355646  MISS:    2632840  HIT %:    84.5022  MISS %:    15.4978   MPKI: 13.1642
L2C LOAD      ACCESS:   15411185  HIT:   13093000  MISS:    2318185  HIT %:    84.9578  MISS %:    15.0422   MPKI: 11.5909
L2C DATA LOAD MPKI: 3.93625
L2C INSTRUCTION LOAD MPKI: 7.65467
L2C RFO       ACCESS:     371302  HIT:     246483  MISS:     124819  HIT %:    66.3834  MISS %:    33.6166   MPKI: 0.624095
L2C PREFETCH  ACCESS:         30  HIT:          0  MISS:         30  HIT %:          0  MISS %:        100   MPKI: 0.00015
AGUS PREFETCH L1 MISS: 0
L2C DATA PREFETCH MPKI: 0.00015
L2C INSTRUCTION PREFETCH MPKI: 0
L2C WRITEBACK ACCESS:     807536  HIT:     767526  MISS:      40010  HIT %:    95.0454  MISS %:    4.95458   MPKI: 0.20005
L2C LOAD TRANSLATION ACCESS:     398433  HIT:     248637  MISS:     149796  HIT %:    62.4037  MISS %:    37.5963   MPKI: 0.74898
L2C PREFETCH  REQUESTED:          0  ISSUED:          0  USEFUL:          0  USELESS:         30
L2C USEFUL LOAD PREFETCHES:          0 PREFETCH ISSUED TO LOWER LEVEL:         30  ACCURACY: 0
L2C TIMELY PREFETCHES:          0 LATE PREFETCHES: 0 DROPPED PREFETCHES: 0
L2C PREFETCHES SAME FILL-ORIGIN LEVEL: 0 DIFFERENT FILL-ORIGIN LEVEL: 0
L2C AVERAGE MISS LATENCY: 41.5378 cycles
L2C RQ	ACCESS:   16180970	FORWARD:          0	MERGED:          0	TO_CACHE:   16180920
L2C WQ	ACCESS:     807536	FORWARD:         50	MERGED:          0	TO_CACHE:     807536
L2C PQ	ACCESS:         30	FORWARD:          0	MERGED:          0	TO_CACHE:         30

L2C Instructions Evicting Data 551465
L2C Translations Evicting Data 53586
L2C Data Evicting Data 334346
L2C Instructions Evicting Instructions 890978
L2C Translations Evicting Instructions 88910
L2C Data Evicting Instructions 526236
L2C Instructions Evicting Translations 88492
L2C Translations Evicting Translations 7300
L2C Data Evicting Translations 51517
L2C Dense regions hint from L2: 0
PSCL5 TOTAL     ACCESS:     314225  HIT:     314225  MISS:          0  HIT %:        100  MISS %:          0   MPKI: 0
PSCL5 LOAD TRANSLATION ACCESS:     314225  HIT:     314225  MISS:          0  HIT %:        100  MISS %:          0   MPKI: 0
PSCL5 PREFETCH  REQUESTED:          0  ISSUED:          0  USEFUL:          0  USELESS:          0
PSCL5 USEFUL LOAD PREFETCHES:          0 PREFETCH ISSUED TO LOWER LEVEL:          0  ACCURACY: -nan
PSCL5 TIMELY PREFETCHES:          0 LATE PREFETCHES: 0 DROPPED PREFETCHES: 0
PSCL5 PREFETCHES SAME FILL-ORIGIN LEVEL: 0 DIFFERENT FILL-ORIGIN LEVEL: 0

PSCL4 TOTAL     ACCESS:     293470  HIT:     292726  MISS:        744  HIT %:    99.7465  MISS %:   0.253518   MPKI: 0.00372
PSCL4 LOAD TRANSLATION ACCESS:     293470  HIT:     292726  MISS:        744  HIT %:    99.7465  MISS %:   0.253518   MPKI: 0.00372
PSCL4 PREFETCH  REQUESTED:          0  ISSUED:          0  USEFUL:          0  USELESS:          0
PSCL4 USEFUL LOAD PREFETCHES:          0 PREFETCH ISSUED TO LOWER LEVEL:          0  ACCURACY: -nan
PSCL4 TIMELY PREFETCHES:          0 LATE PREFETCHES: 0 DROPPED PREFETCHES: 0
PSCL4 PREFETCHES SAME FILL-ORIGIN LEVEL: 0 DIFFERENT FILL-ORIGIN LEVEL: 0

PSCL3 TOTAL     ACCESS:     311637  HIT:     309204  MISS:       2433  HIT %:    99.2193  MISS %:   0.780716   MPKI: 0.012165
PSCL3 LOAD TRANSLATION ACCESS:     311637  HIT:     309204  MISS:       2433  HIT %:    99.2193  MISS %:   0.780716   MPKI: 0.012165
PSCL3 PREFETCH  REQUESTED:          0  ISSUED:          0  USEFUL:          0  USELESS:          0
PSCL3 USEFUL LOAD PREFETCHES:          0 PREFETCH ISSUED TO LOWER LEVEL:          0  ACCURACY: -nan
PSCL3 TIMELY PREFETCHES:          0 LATE PREFETCHES: 0 DROPPED PREFETCHES: 0
PSCL3 PREFETCHES SAME FILL-ORIGIN LEVEL: 0 DIFFERENT FILL-ORIGIN LEVEL: 0

PSCL2 TOTAL     ACCESS:     314225  HIT:     233194  MISS:      81031  HIT %:    74.2124  MISS %:    25.7876   MPKI: 0.405155
PSCL2 LOAD TRANSLATION ACCESS:     314225  HIT:     233194  MISS:      81031  HIT %:    74.2124  MISS %:    25.7876   MPKI: 0.405155
PSCL2 PREFETCH  REQUESTED:          0  ISSUED:          0  USEFUL:          0  USELESS:          0
PSCL2 USEFUL LOAD PREFETCHES:          0 PREFETCH ISSUED TO LOWER LEVEL:          0  ACCURACY: -nan
PSCL2 TIMELY PREFETCHES:          0 LATE PREFETCHES: 0 DROPPED PREFETCHES: 0
PSCL2 PREFETCHES SAME FILL-ORIGIN LEVEL: 0 DIFFERENT FILL-ORIGIN LEVEL: 0

LLC TOTAL     ACCESS:    2926951  HIT:    2734334  MISS:     192617  HIT %:    93.4192  MISS %:    6.58081   MPKI: 0.963085
LLC LOAD      ACCESS:    2318184  HIT:    2162030  MISS:     156154  HIT %:     93.264  MISS %:    6.73605   MPKI: 0.78077
LLC RFO       ACCESS:     124818  HIT:      93696  MISS:      31122  HIT %:    75.0661  MISS %:    24.9339   MPKI: 0.15561
LLC PREFETCH  ACCESS:         30  HIT:          0  MISS:         30  HIT %:          0  MISS %:        100   MPKI: 0.00015
AGUS PREFETCH L1 MISS: 0
LLC WRITEBACK ACCESS:     334123  HIT:     332254  MISS:       1869  HIT %:    99.4406  MISS %:   0.559375   MPKI: 0.009345
LLC LOAD TRANSLATION ACCESS:     149796  HIT:     146354  MISS:       3442  HIT %:    97.7022  MISS %:    2.29779   MPKI: 0.01721
LLC PREFETCH  REQUESTED:          0  ISSUED:          0  USEFUL:          0  USELESS:         29
LLC USEFUL LOAD PREFETCHES:          0 PREFETCH ISSUED TO LOWER LEVEL:         30  ACCURACY: 0
LLC TIMELY PREFETCHES:          0 LATE PREFETCHES: 0 DROPPED PREFETCHES: 0
LLC PREFETCHES SAME FILL-ORIGIN LEVEL: 0 DIFFERENT FILL-ORIGIN LEVEL: 0
LLC AVERAGE MISS LATENCY: 163.931 cycles
LLC RQ	ACCESS:    2592800	FORWARD:          0	MERGED:          0	TO_CACHE:    2592798
LLC WQ	ACCESS:     334123	FORWARD:          2	MERGED:          0	TO_CACHE:     334123
LLC PQ	ACCESS:         30	FORWARD:          0	MERGED:          0	TO_CACHE:         30

LLC Dense regions hint to LLC: 0

RAW hits: 2271686
Loads Generated: 56292807
Loads sent to L1D: 54021121
Stores Generated: 18064421
Stores sent to L1D: 18064452
Major fault: 0 Minor fault: 4241
Allocated PAGES: 4241
ucb ended
-----------------------------------------------------------------------------------------------------------------------------------------------------------------------------------------------------
Offsets elements: 1 4398022799886 -4398022799886 -4398022799887 35 4398027195940 -4396090 -4398022799850 4398022799850 4125902 -4125898 -1 4449561 -8349 -50565 -1133932 1192846 -1133931 1135239 30 1204 -4393135 4551295 -372358 -922275 1192883 -54103 7816 2 -1161558 -4398026046802 4398027196142 -4398027196139 4398022805042 3256717 158160 -4551295 4178937 270608 -4449600 4391820 -4398027196865 -2 4398022805040 -4398022805039 4398022805037 -4398022805037 4398022805038 4398027196752 -4391714 3256719 1135090 3690 -1162201 -4398026041602 4398027190537 -4390050 4125898 265907 -4398027204913 4398027212729 -1162196 -4398026041893 4398027190843 1529 5419 -271116 -4398026935316 4398027205503 -4396088 4125901 -4125900 4395497 4398022805039 -4398022805042 4398027196140 -4398027200511 4398027201236 4398022805041 -4398022805038 -4398022809415 4377 4398027201126 -4398022809413 4398022809413 4 4125899 323662 -1192845 1184496 -49257 -1135268 1133930 2542 -922274 1192882 7818 3 4398027196139 -4391097 3256718 1135238 -55 4178992 212828 57780 -4398027254645 1135089 -3241115 3241115 -4390048 -4398027201225 4398027204915 -277416 265697 -4398027201015 4398027206434 -929 -1154967 -264168 -4391100 4398027196865 -4398027201238 4398027200513 -4398027196140 -4398022809417 4379 -4398027205505 4398027205505 4398022809415 -1192844 1184495 3256663 922274 -57780 3256720 1135088 -1146597 -15601 -4398026041898 4398022800780 4125900 264150 -4398022809419 4398027201224 -4398027201014 4398027206433 -1155896 6019 -270187 -4398022809414 4398022809414 -1135267 1133929 3256664 922273 1135237 884785 -4398026926387 4398022800489 -1757 5447 884780 -1150479 -8642 -6019 -4390069 -4398027201237 4398027200512 -4398022809416 4378 4398027205504 -1192843 1184494 -1135266 1133928 -922272 1192880 1135236 3256721 1135087 -1162199 -3241117 3241117 884783 -4398026926298 4398022800400 -4398022809418 4398027201223 -8641 4398027206432 -4398027201236 4398027200511 -1192842 1184493 -1135265 1133927 -922271 1192879 -1160926 95573 -4398026137853 4398027190988 1135235 -1111638 -4398026137854 4398022799889 4398022799885 -4398022799885 4398027191600 3256722 1135086 -4398022799851 4398027191656 4398026926675 -1529 -4398027189917 3337965 1053858 -4398027191669 4398027190944 -1053133 4398026137854 -3337964 -4398022799848 -38 4398027195974 -4398022799846 4398027195936 4398022799846 -1192841 1184492 -1184492 -4390646 1192841 8349 -58914 58914 -1184491 1192840 -1133925 1192839 -1192839 1184490 -1192838 1184489 -1133924 1135232 3256669 922268 216505 7819 46284 -46287 -1162010 -4398026041111 4398027190900 3256724 -4398027249406 4398022799801 -4398022799799 4398022799799 4398027191514 3256726 1135082 -1146591 -15610 4398022800487 -4398022799787 4398027191592 -4398027191382 4398027196801 -1162011 -4398022799803 4398027191626 -4398027191605 4398027190880 -4398027190901 4398022799802 -4398022799784 -16 4398027195888 -4398022799782 4398027195872 4398022799782 -1135261 1133923 -922267 1192875 -1161526 57766 1091539 3256725 1135231 -1150045 -3299559 3299557 -3299558 3299562 -3299563 3299563 1092152 -1134988 -3256726 4391808 -4391808 1138772 4391805 -4398027195578 4398027193821 -4398027195368 4398027200787 3299558 -4398026103327 4398027195592 -725 -1091540 -4398022803771 4398026103333 1096526 -4398022803769 4398027199859 4398022803769 -1192837 1184488 -1135260 1133922 -922266 1192874 -3 1091542 1135230 -3299560 3256727 1135081 -1162184 -3241132 -884768 -4398026041276 4398022800146 -4398022803772 4398027195577 4490 -4398027199857 4398027200786 1092265 -4398027195590 4398027194865 4398026103331 -4398022803767 4398027199857 4398022803767 -1192836 1184487 -1135259 1133921 -922265 1192873 -1161602 -4398026041426 4398027190807 1135229 -4398027249313 4398022799708 -4398022799706 4398022799704 -4398022799704 4398022799705 4391715 -4398027191419 3256728 -3256728 1135080 -4398027195165 4398027202983 -4398027191265 4398027196684 -4398022799710 4398027191533 -4398027191488 4398027190763 -4398027190808 4398022799709 -4398022799667 4398027195793 -4398022799665 4398027195755 4398022799665 -1192835 1184486 -57606 49227 -1184486 1136463 -2542 160702 -1161859 -4398026042342 4398027191979 -4398027250485 4398022800880 -4398022800878 4398022800878 4398027192593 3256729 1135079 -1135079 1138769 -1162198 -3241118 3241118 884782 -4398026926680 4398022800782 -4398022800862 4398027192667 -85 4398027197876 -6948 -1161858 -4398022800882 4398027192705 -4398027192681 4398027191956 -4398027191980 -4398022800860 -19 4398027196967 -4398022800858 4398027196948 4398022800857 -1135258 1133920 -922264 1192872 1135228 -4398022800861 4398027192666 -84 4398027197875 -4398027192679 4398027191954 4398022800881 -21 -4398022800856 4398027196946 4398022800856 -1192834 1184485 -1135257 1133919 -922263 1192871 1135227 3256730 1135078 4398027192665 -83 4398027197874 4398022800879 21 -4398022800855 4398027196945 4398022800855 -1192833 1184484 -4449560 4396084 53475 -53 4427100 -4427101 4449560 -22460 -35384 4996 30388 -4427100 -5829142 5824729 1428 -1428 -4393099 4391980 165314 -4557219 4557219 -8 8 4557337 -126 125 -117 -6022528 6022528 4555747 1464 -6022645 6022520 128 -4557414 4396085 42421 27264 -5898830 5824730 -4391671 4393099 -1119 126 -4557337 4557211 117 6021056 -4557211 4557336 -125 -118781 -5903739 1465234 4557414 -4557415 4438508 27265 -69687 -5829143 6022648 -118907 -4465771 -4413 -5321815 5321815 -165615 -4391596 4393024 164313 -5334519 5332930 -5215613 777108 -5160614 5156201 1472 -5160615 5156202 -5829138 5824725 4391671 -4391672 4391981 -164195 -4393024 -5829139 5824726 -5912313 5913741 -6088184 6086595 -5969278 1530773 -5916727 5912314 -5916728 5912315 -5916730 5912317 -5916732 5912319 -5913504 6078818 -5824658 1432987 -5829072 5824659 -5829082 5824669 -27266 118789 -4557295 4438505 24 118755 -118755 -4438530 -5829101 5824688 165743 -164315 -165623 164187 118 -5829127 5824714 -6022520 -118908 -27264 -4438507 -4438506 4391672 309 -161210 -5829128 5826143 164195 5824715 -5829129 5824716 -5829130 5824717 -46836 5826145 -5829131 5824718 -5829132 5824719 -5829135 5824722 5826150 -5829136 5824723 -5829137 5824724 -5990493 5990493 5913747 -5912663 6077977 -5916770 5912357 -5913195 5914623 -5829285 5824872 4465771 4104 -5829295 5990505 -5829305 5824892 -5829308 5824895 -5825441 5990755 -118909 -4438505 4438506 -4465772 4413 -5829548 5826563 -5829554 5825141 -5829555 5825142 -5829557 5825144 -5988246 5988246 -5989881 5988292 -5989756 5870975 74100 -5827038 5824053 -5870975 1432470 5822625 -5827040 5822627 -5827041 5822628 -46835 -2985 -5988503 5988503 -5827294 5822881 -5827295 5822882 -5906922 1349711 -5924343 5922754 -5805437 1366932 -5745720 5741307 4557286 -161330 73791 91523 -5606801 5441186 -5629430 5627841 -5510524 1072019 -5445599 -5155479 5156907 -5334394 5334522 -4557218 4438430 -4438508 4438509 118779 -118680 118806 -5334523 5334405 -91475 85787 -85787 -4465823 54 -52 27314 91465 -118779 118905 -118806 -5215717 188 5334206 -5334520 5334432 -5334242 5334203 38 -5334240 5334240 -5334206 5334244 -91504 91466 -2359296 478 7601749 -8257092 8257093 -4465826 4465826 -4465825 4465824 -118805 5334397 5334520 -5334332 5334433 -4557328 118904 -188 -5334241 -4557329 4465825 4438512 4438607 777103 4557328 -4557330 -27314 27313 -4465821 -776916 5215522 -4557290 4557413 -118904 -118807 -5215713 191 5242929 91590 -87 91505 -39 5334329 5334394 5215427 118818 -4557326 4557325 -91503 -118681 -5334203 5334328 4557329 776915 -4557325 -5334522 777107 -5215427 5334331 27216 91503 91591 -86 -5334436 -5334329 776912 4557412 118681 -5334397 776914 5334204 4438606 -4557291 -777103 5215615 4465821 -118721 118807 -5334330 -118808 27217 4557290 -5242739 5242738 -4465822 -27216 -193 -4557287 97 -5215712 190 5334330 -118682 -5334204 5334523 776916 -777104 -27313 4557326 118808 4438604 4557287 -118683 -776917 5215521 -4557417 -118722 5215425 118683 -5924346 5924221 -5924218 5924344 -5924344 256 5924001 -5923997 5923959 -5923996 5923996 -5923962 5924000 -91592 -5242931 -589824 -2424337 3791267 5924218 5924088 5924257 -118809 -5924221 5924346 -5924088 -256 1366671 118817 -1366672 118810 1366931 -5805183 5924087 
Potential of Offsets elements: 4003.1 28.5179 28.5179 28.5179 28.5179 28.5179 28.5179 28.5179 28.5179 28.5179 28.5179 1966.21 28.5179 28.5179 28.5179 28.5179 28.5179 28.5179 28.5179 366.518 32.5179 53.5179 77.5179 128.518 28.5179 28.5179 76.5179 160.518 2294.52 28.5179 28.5179 28.5179 28.5179 28.5179 28.5179 44.5179 64.5179 44.5179 44.5179 28.5179 28.5179 28.5179 3392.52 28.5179 28.5179 28.5179 28.5179 28.5179 28.5179 28.5179 28.5179 28.5179 28.5179 28.5179 28.5179 28.5179 28.5179 28.5179 28.5179 28.5179 28.5179 28.5179 28.5179 28.5179 28.5179 28.5179 28.5179 28.5179 28.5179 28.5179 28.5179 28.5179 28.5179 28.5179 28.5179 28.5179 28.5179 28.5179 28.5179 28.5179 28.5179 28.5179 28.5179 28.5179 28.5179 58.5179 28.5179 28.5179 28.5179 28.5179 28.5179 28.5179 28.5179 28.5179 28.5179 28.5179 37.5179 178.518 28.5179 28.5179 28.5179 28.5179 34.5179 28.5179 28.5179 28.5179 28.5179 28.5179 28.5179 28.5179 28.5179 28.5179 28.5179 28.5179 28.5179 28.5179 28.5179 28.5179 28.5179 28.5179 28.5179 28.5179 28.5179 28.5179 28.5179 28.5179 28.5179 28.5179 28.5179 28.5179 28.5179 28.5179 28.5179 28.5179 28.5179 28.5179 28.5179 28.5179 28.5179 28.5179 28.5179 28.5179 28.5179 28.5179 28.5179 28.5179 28.5179 28.5179 28.5179 28.5179 28.5179 28.5179 28.5179 28.5179 28.5179 28.5179 28.5179 28.5179 28.5179 28.5179 28.5179 28.5179 28.5179 28.5179 28.5179 28.5179 28.5179 28.5179 28.5179 28.5179 28.5179 28.5179 28.5179 28.5179 28.5179 28.5179 28.5179 28.5179 28.5179 28.5179 28.5179 28.5179 28.5179 28.5179 28.5179 28.5179 28.5179 28.5179 28.5179 28.5179 28.5179 28.5179 28.5179 28.5179 28.5179 28.5179 28.5179 28.5179 28.5179 28.5179 28.5179 28.5179 28.5179 28.5179 28.5179 28.5179 28.5179 28.5179 28.5179 28.5179 28.5179 28.5179 28.5179 28.5179 28.5179 28.5179 28.5179 28.5179 28.5179 28.5179 28.5179 28.5179 28.5179 28.5179 28.5179 28.5179 28.5179 28.5179 28.5179 28.5179 28.5179 28.5179 28.5179 28.5179 28.5179 28.5179 28.5179 28.5179 28.5179 28.5179 28.5179 28.5179 28.5179 28.5179 28.5179 28.5179 28.5179 28.5179 28.5179 28.5179 28.5179 28.5179 28.5179 28.5179 28.5179 28.5179 28.5179 28.5179 28.5179 28.5179 28.5179 28.5179 28.5179 28.5179 28.5179 28.5179 28.5179 28.5179 28.5179 28.5179 28.5179 28.5179 28.5179 28.5179 28.5179 28.5179 28.5179 28.5179 28.5179 28.5179 312.518 28.5179 28.5179 28.5179 28.5179 28.5179 28.5179 28.5179 28.5179 28.5179 28.5179 28.5179 28.5179 28.5179 28.5179 28.5179 28.5179 28.5179 28.5179 28.5179 28.5179 28.5179 28.5179 28.5179 28.5179 28.5179 28.5179 28.5179 28.5179 28.5179 28.5179 28.5179 28.5179 28.5179 28.5179 28.5179 28.5179 28.5179 28.5179 28.5179 28.5179 28.5179 28.5179 28.5179 28.5179 28.5179 28.5179 28.5179 28.5179 1271.52 28.5179 28.5179 28.5179 28.5179 28.5179 28.5179 28.5179 28.5179 28.5179 28.5179 28.5179 28.5179 28.5179 28.5179 28.5179 28.5179 28.5179 28.5179 28.5179 28.5179 28.5179 28.5179 28.5179 28.5179 28.5179 28.5179 28.5179 28.5179 28.5179 28.5179 28.5179 28.5179 28.5179 28.5179 28.5179 28.5179 28.5179 28.5179 28.5179 28.5179 28.5179 28.5179 28.5179 28.5179 28.5179 28.5179 28.5179 28.5179 28.5179 28.5179 28.5179 28.5179 28.5179 28.5179 28.5179 28.5179 28.5179 28.5179 28.5179 28.5179 28.5179 28.5179 28.5179 28.5179 28.5179 28.5179 28.5179 28.5179 28.5179 28.5179 28.5179 28.5179 28.5179 28.5179 28.5179 28.5179 28.5179 28.5179 28.5179 28.5179 28.5179 28.5179 28.5179 28.5179 28.5179 28.5179 28.5179 28.5179 28.5179 28.5179 28.5179 28.5179 28.5179 28.5179 28.5179 28.5179 61.5179 28.5179 28.5179 28.5179 28.5179 28.5179 28.5179 28.5179 28.5179 28.5179 28.5179 28.5179 28.5179 28.5179 28.5179 28.5179 28.5179 2056.52 28.5179 28.5179 28.5179 28.5179 28.5179 28.5179 28.5179 28.5179 28.5179 28.5179 28.5179 28.5179 28.5179 32.5179 28.5179 28.5179 35.5179 28.5179 28.5179 28.5179 28.5179 28.5179 28.5179 28.5179 28.5179 28.5179 28.5179 28.5179 28.5179 28.5179 28.5179 28.5179 28.5179 28.5179 28.5179 28.5179 28.5179 28.5179 28.5179 28.5179 28.5179 28.5179 28.5179 340.518 620.518 28.5179 28.5179 28.5179 28.5179 28.5179 28.5179 28.5179 28.5179 28.5179 28.5179 28.5179 28.5179 28.5179 28.5179 28.5179 28.5179 28.5179 28.5179 28.5179 28.5179 28.5179 28.5179 28.5179 28.5179 28.5179 28.5179 28.5179 28.5179 28.5179 28.5179 28.5179 28.5179 28.5179 28.5179 28.5179 28.5179 28.5179 28.5179 28.5179 28.5179 28.5179 28.5179 28.5179 28.5179 28.5179 28.5179 28.5179 28.5179 28.5179 28.5179 28.5179 28.5179 28.5179 28.5179 28.5179 28.5179 28.5179 28.5179 28.5179 28.5179 28.5179 28.5179 28.5179 28.5179 28.5179 28.5179 28.5179 28.5179 28.5179 28.5179 28.5179 28.5179 28.5179 28.5179 28.5179 28.5179 28.5179 28.5179 28.5179 28.5179 28.5179 28.5179 28.5179 28.5179 28.5179 28.5179 28.5179 28.5179 28.5179 28.5179 28.5179 47.5179 28.5179 28.5179 28.5179 28.5179 28.5179 28.5179 28.5179 28.5179 28.5179 28.5179 28.5179 28.5179 28.5179 28.5179 28.5179 28.5179 28.5179 28.5179 28.5179 28.5179 28.5179 28.5179 28.5179 28.5179 28.5179 28.5179 28.5179 28.5179 28.5179 28.5179 28.5179 28.5179 28.5179 28.5179 28.5179 28.5179 28.5179 28.5179 28.5179 28.5179 28.5179 28.5179 28.5179 28.5179 28.5179 28.5179 28.5179 28.5179 28.5179 28.5179 28.5179 28.5179 28.5179 28.5179 28.5179 28.5179 28.5179 28.5179 28.5179 28.5179 28.5179 28.5179 28.5179 28.5179 28.5179 28.5179 28.5179 28.5179 28.5179 28.5179 28.5179 28.5179 28.5179 28.5179 28.5179 28.5179 28.5179 28.5179 28.5179 28.5179 28.5179 28.5179 28.5179 28.5179 28.5179 28.5179 28.5179 28.5179 28.5179 28.5179 28.5179 28.5179 28.5179 28.5179 28.5179 28.5179 28.5179 28.5179 28.5179 28.5179 28.5179 28.5179 28.5179 28.5179 28.5179 28.5179 28.5179 28.5179 28.5179 28.5179 28.5179 28.5179 28.5179 28.5179 28.5179 28.5179 28.5179 28.5179 28.5179 28.5179 28.5179 28.5179 28.5179 28.5179 28.5179 28.5179 28.5179 28.5179 28.5179 28.5179 28.5179 28.5179 28.5179 28.5179 28.5179 1629.52 652.518 28.5179 28.5179 28.5179 28.5179 28.5179 28.5179 28.5179 28.5179 28.5179 28.5179 28.5179 28.5179 41.5179 28.5179 28.5179 28.5179 28.5179 28.5179 28.5179 28.5179 28.5179 28.5179 28.5179 28.5179 28.5179 28.5179 28.5179 28.5179 28.5179 28.5179 28.5179 28.5179 28.5179 28.5179 28.5179 28.5179 28.5179 28.5179 28.5179 28.5179 28.5179 28.5179 28.5179 28.5179 28.5179 28.5179 28.5179 28.5179 28.5179 28.5179 28.5179 28.5179 28.5179 28.5179 28.5179 28.5179 28.5179 30.5179 28.5179 28.5179 28.5179 28.5179 28.5179 28.5179 28.5179 28.5179 28.5179 28.5179 28.5179 28.5179 28.5179 28.5179 28.5179 28.5179 28.5179 28.5179 28.5179 28.5179 28.5179 28.5179 28.5179 28.5179 28.5179 28.5179 28.5179 28.5179 28.5179 28.5179 28.5179 28.5179 28.5179 28.5179 28.5179 28.5179 28.5179 28.5179 28.5179 28.5179 28.5179 28.5179 28.5179 28.5179 28.5179 28.5179 32.5179 28.5179 28.5179 28.5179 28.5179 28.5179 28.5179 28.5179 28.5179 28.5179 28.5179 28.5179 28.5179 28.5179 28.5179 28.5179 28.5179 28.5179 28.5179 28.5179 28.5179 28.5179 28.5179 28.5179 28.5179 28.5179 28.5179 28.5179 28.5179 28.5179 28.5179 28.5179 28.5179 28.5179 28.5179 28.5179 28.5179 28.5179 28.5179 28.5179 28.5179 28.5179 28.5179 28.5179 28.5179 28.5179 28.5179 28.5179 28.5179 28.5179 28.5179 28.5179 28.5179 28.5179 28.5179 28.5179 
rewards of Offsets elements: 4003 0 0 0 0 0 0 0 0 0 0 1961 0 0 0 0 0 0 0 338 4 25 49 100 0 0 48 132 2266 0 0 0 0 0 0 16 36 16 16 0 0 0 3364 0 0 0 0 0 0 0 0 0 0 0 0 0 0 0 0 0 0 0 0 0 0 0 0 0 0 0 0 0 0 0 0 0 0 0 0 0 0 0 0 0 0 30 0 0 0 0 0 0 0 0 0 0 9 150 0 0 0 0 6 0 0 0 0 0 0 0 0 0 0 0 0 0 0 0 0 0 0 0 0 0 0 0 0 0 0 0 0 0 0 0 0 0 0 0 0 0 0 0 0 0 0 0 0 0 0 0 0 0 0 0 0 0 0 0 0 0 0 0 0 0 0 0 0 0 0 0 0 0 0 0 0 0 0 0 0 0 0 0 0 0 0 0 0 0 0 0 0 0 0 0 0 0 0 0 0 0 0 0 0 0 0 0 0 0 0 0 0 0 0 0 0 0 0 0 0 0 0 0 0 0 0 0 0 0 0 0 0 0 0 0 0 0 0 0 0 0 0 0 0 0 0 0 0 0 0 0 0 0 0 0 0 0 0 0 0 0 0 0 0 0 0 0 0 0 0 0 0 0 0 0 0 0 0 0 0 0 284 0 0 0 0 0 0 0 0 0 0 0 0 0 0 0 0 0 0 0 0 0 0 0 0 0 0 0 0 0 0 0 0 0 0 0 0 0 0 0 0 0 0 0 0 0 0 0 0 1243 0 0 0 0 0 0 0 0 0 0 0 0 0 0 0 0 0 0 0 0 0 0 0 0 0 0 0 0 0 0 0 0 0 0 0 0 0 0 0 0 0 0 0 0 0 0 0 0 0 0 0 0 0 0 0 0 0 0 0 0 0 0 0 0 0 0 0 0 0 0 0 0 0 0 0 0 0 0 0 0 0 0 0 0 0 0 0 0 0 0 0 0 0 0 0 0 33 0 0 0 0 0 0 0 0 0 0 0 0 0 0 0 0 2028 0 0 0 0 0 0 0 0 0 0 0 0 0 4 0 0 7 0 0 0 0 0 0 0 0 0 0 0 0 0 0 0 0 0 0 0 0 0 0 0 0 0 0 312 592 0 0 0 0 0 0 0 0 0 0 0 0 0 0 0 0 0 0 0 0 0 0 0 0 0 0 0 0 0 0 0 0 0 0 0 0 0 0 0 0 0 0 0 0 0 0 0 0 0 0 0 0 0 0 0 0 0 0 0 0 0 0 0 0 0 0 0 0 0 0 0 0 0 0 0 0 0 0 0 0 0 0 0 0 0 0 0 0 0 0 0 19 0 0 0 0 0 0 0 0 0 0 0 0 0 0 0 0 0 0 0 0 0 0 0 0 0 0 0 0 0 0 0 0 0 0 0 0 0 0 0 0 0 0 0 0 0 0 0 0 0 0 0 0 0 0 0 0 0 0 0 0 0 0 0 0 0 0 0 0 0 0 0 0 0 0 0 0 0 0 0 0 0 0 0 0 0 0 0 0 0 0 0 0 0 0 0 0 0 0 0 0 0 0 0 0 0 0 0 0 0 0 0 0 0 0 0 0 0 0 0 0 0 0 0 0 0 0 0 0 0 0 0 0 0 0 0 1601 624 0 0 0 0 0 0 0 0 0 0 0 0 13 0 0 0 0 0 0 0 0 0 0 0 0 0 0 0 0 0 0 0 0 0 0 0 0 0 0 0 0 0 0 0 0 0 0 0 0 0 0 0 0 0 0 0 0 2 0 0 0 0 0 0 0 0 0 0 0 0 0 0 0 0 0 0 0 0 0 0 0 0 0 0 0 0 0 0 0 0 0 0 0 0 0 0 0 0 0 0 0 0 0 0 4 0 0 0 0 0 0 0 0 0 0 0 0 0 0 0 0 0 0 0 0 0 0 0 0 0 0 0 0 0 0 0 0 0 0 0 0 0 0 0 0 0 0 0 0 0 0 0 0 0 0 0 0 0 0 0 Printing Sanity3
offset_index value878
offset list size878
reward size878
potential size878
-----------------------------------------------------------------------------------------------------------------------------------------------------------------------------------------------------

DRAM Statistics
 CHANNEL 0
 RQ ROW_BUFFER_HIT:      42519  ROW_BUFFER_MISS:     148229
 DBUS_CONGESTED:        116
 WQ ROW_BUFFER_HIT:      17708  ROW_BUFFER_MISS:     115168  FULL:          0

 AVG_CONGESTED_CYCLE: 4
 All warmup complete: 2
Channel 0 Bank busy for read cycles: 0
Channel 0 Bank busy for write cycles: 0
Channel 0
Rank 0
0banks busy for read cycles: 547202429
0banks busy for write cycles: 75457
1banks busy for read cycles: 16782443
1banks busy for write cycles: 10718599
2banks busy for read cycles: 1963322
2banks busy for write cycles: 2090204
3banks busy for read cycles: 297754
3banks busy for write cycles: 619051
4banks busy for read cycles: 153449
4banks busy for write cycles: 306041
5banks busy for read cycles: 63839
5banks busy for write cycles: 189332
6banks busy for read cycles: 51020
6banks busy for write cycles: 135932
7banks busy for read cycles: 55674
7banks busy for write cycles: 121591
8banks busy for read cycles: 148029
8banks busy for write cycles: 354149

CPU 0 Branch Prediction Accuracy: 99.8224% MPKI: 0.38789 Average ROB Occupancy at Mispredict: 29.4283
Branch types
NOT_BRANCH: 156307724 78.1539%
BRANCH_DIRECT_JUMP: 1685269 0.842634%
BRANCH_INDIRECT: 19828015 9.91401%
BRANCH_CONDITIONAL: 14737476 7.36874%
BRANCH_DIRECT_CALL: 2993939 1.49697%
BRANCH_INDIRECT_CALL: 724221 0.36211%
BRANCH_RETURN: 3723029 1.86151%
BRANCH_OTHER: 0 0%

DRAM PAGES: 1048576
Allocated PAGES: 4241
