
*** ChampSim Multicore Out-of-Order Simulator ***

Warmup Instructions: 50000000
Simulation Instructions: 200000000
Number of CPUs: 1
LLC sets: 2048
LLC ways: 16
Off-chip DRAM Size: 4096 MB Channels: 1 Width: 64-bit Data Rate: 6400 MT/s
CPU 0 runs traces/spec2k17/srv_65.champsimtrace.xz
.xz
BTB has LRU replacement policy
ITLB has LRU replacement policy
DTLB has LRU replacement policy
STLB has LRU replacement policy
L1I has LRU replacement policy
L1D has LRU replacement policy
Initialize SRRIP state for L2C
Initialize DRRIP state for LLC
Heartbeat CPU 0 instructions: 10000001 cycles: 2763713 heartbeat IPC: 3.61832 cumulative IPC: 3.61832 (Simulation time: 0 hr 0 min 38 sec) 
Heartbeat CPU 0 instructions: 20000001 cycles: 5521845 heartbeat IPC: 3.62564 cumulative IPC: 3.62198 (Simulation time: 0 hr 1 min 14 sec) 
Heartbeat CPU 0 instructions: 30000003 cycles: 8277863 heartbeat IPC: 3.62842 cumulative IPC: 3.62412 (Simulation time: 0 hr 1 min 50 sec) 
*** Reached end of trace for Core: 0 Repeating trace: traces/spec2k17/srv_65.champsimtrace.xz
Heartbeat CPU 0 instructions: 40000003 cycles: 11034884 heartbeat IPC: 3.6271 cumulative IPC: 3.62487 (Simulation time: 0 hr 2 min 27 sec) 
Heartbeat CPU 0 instructions: 50000001 cycles: 13792822 heartbeat IPC: 3.6259 cumulative IPC: 3.62507 (Simulation time: 0 hr 3 min 3 sec) 

Warmup complete CPU 0 instructions: 50000001 cycles: 13792822 (Simulation time: 0 hr 3 min 3 sec) 

Offsets elements: 
Potential of Offsets elements: 
rewards of Offsets elements: 
Printing Sanity1
offset list size729
Offsets elements: 
Potential of Offsets elements: 
rewards of Offsets elements: 0 802 0 0 0 0 0 0 569 237 77 3 0 0 0 110 99 276 121 84 357 330 242 144 81 28 550 18 27 351 54 25 0 0 0 1744 0 0 0 0 0 0 0 0 0 0 0 0 0 0 0 0 0 0 0 0 0 0 386 0 0 0 0 0 0 0 0 0 0 0 0 0 0 0 0 0 0 0 0 1834 0 0 0 4205 0 0 0 0 0 157 0 0 0 0 0 0 0 0 0 0 0 0 0 0 0 0 0 0 0 0 0 0 0 0 0 6 15 0 0 0 0 0 0 0 16 0 0 0 0 0 0 0 60 0 0 0 0 0 0 0 0 0 0 0 54 0 0 0 0 0 0 0 0 0 0 0 0 0 0 0 0 0 0 579 522 0 0 0 0 0 0 0 0 0 0 0 0 0 0 0 0 0 0 0 0 0 53 0 0 0 0 9 52 144 144 84 25 138 18 0 0 0 0 0 0 0 0 0 0 0 0 0 0 0 0 0 0 0 0 0 0 0 0 0 0 0 0 0 0 0 0 0 0 0 0 0 143 0 0 0 0 0 0 0 0 0 0 0 0 0 0 0 0 0 0 0 0 0 0 0 36 0 0 0 0 0 0 0 9 0 0 0 0 0 0 48 0 0 0 0 0 0 0 0 0 0 0 0 117 0 6 0 0 0 0 52 60 72 9 301 9 4 21 36 11 36 0 180 90 72 0 0 120 126 45 363 6 0 0 0 0 0 468 0 0 35 0 0 0 0 0 0 0 0 0 0 0 0 0 0 0 0 0 0 0 0 0 0 0 0 0 0 0 0 0 0 6 0 0 0 0 0 0 0 0 0 0 0 0 0 0 0 0 0 0 0 0 0 0 0 0 0 0 0 0 0 0 0 0 0 0 0 0 0 0 0 0 0 0 0 0 0 0 0 0 0 0 0 0 0 0 0 0 0 0 0 0 0 183 0 0 0 0 0 0 0 0 0 0 0 0 0 0 9 0 0 0 0 0 0 0 0 0 0 12 0 0 0 0 0 0 0 0 0 0 0 0 0 0 0 0 0 0 0 0 0 2 0 0 0 0 0 0 0 88 0 0 0 0 0 0 0 0 0 0 0 0 0 0 65 8 0 0 0 0 0 0 0 0 0 0 51 0 0 0 0 0 0 0 0 0 0 0 0 0 0 0 0 0 0 0 0 0 12 0 0 0 0 23 0 0 0 0 0 10 3 14 2 0 0 0 0 0 0 0 0 0 0 0 0 0 0 0 0 0 0 0 0 0 0 0 0 0 0 0 0 0 0 0 0 0 0 0 0 0 267 150 0 0 0 0 1929 0 0 0 0 0 0 0 0 0 0 12 171 0 15 0 0 0 0 0 0 0 0 0 0 0 0 0 24 7 80 0 0 0 0 0 0 0 0 0 0 0 0 0 0 3 0 0 0 0 3 0 0 0 0 0 0 0 0 0 0 0 0 0 0 0 0 0 0 0 116 0 0 0 0 0 0 0 0 0 0 0 0 0 0 0 0 0 2 0 0 0 0 0 0 0 0 0 0 0 0 0 18 0 0 0 0 0 0 0 0 110 0 0 0 35 56 0 0 0 0 0 0 0 0 0 0 0 0 0 0 0 0 0 0 0 0 0 0 0 0 0 0 0 0 0 0 0 
Printing Sanity2
Heartbeat CPU 0 instructions: 60000003 cycles: 35052719 heartbeat IPC: 0.470369 cumulative IPC: 0.470369 (Simulation time: 0 hr 4 min 3 sec) 
*** Reached end of trace for Core: 0 Repeating trace: traces/spec2k17/srv_65.champsimtrace.xz
Heartbeat CPU 0 instructions: 70000002 cycles: 56579709 heartbeat IPC: 0.464533 cumulative IPC: 0.467433 (Simulation time: 0 hr 5 min 4 sec) 
Heartbeat CPU 0 instructions: 80000003 cycles: 78107271 heartbeat IPC: 0.464521 cumulative IPC: 0.466458 (Simulation time: 0 hr 6 min 6 sec) 
Heartbeat CPU 0 instructions: 90000001 cycles: 99572922 heartbeat IPC: 0.46586 cumulative IPC: 0.466309 (Simulation time: 0 hr 7 min 8 sec) 
*** Reached end of trace for Core: 0 Repeating trace: traces/spec2k17/srv_65.champsimtrace.xz
Heartbeat CPU 0 instructions: 100000002 cycles: 121093052 heartbeat IPC: 0.464681 cumulative IPC: 0.465982 (Simulation time: 0 hr 8 min 11 sec) 
Heartbeat CPU 0 instructions: 110000000 cycles: 142453915 heartbeat IPC: 0.468146 cumulative IPC: 0.466341 (Simulation time: 0 hr 9 min 11 sec) 
Heartbeat CPU 0 instructions: 120000003 cycles: 164045237 heartbeat IPC: 0.463149 cumulative IPC: 0.465883 (Simulation time: 0 hr 10 min 13 sec) 
*** Reached end of trace for Core: 0 Repeating trace: traces/spec2k17/srv_65.champsimtrace.xz
Heartbeat CPU 0 instructions: 130000000 cycles: 185511091 heartbeat IPC: 0.465856 cumulative IPC: 0.465879 (Simulation time: 0 hr 11 min 12 sec) 
Heartbeat CPU 0 instructions: 140000003 cycles: 206912902 heartbeat IPC: 0.46725 cumulative IPC: 0.466031 (Simulation time: 0 hr 12 min 12 sec) 
Heartbeat CPU 0 instructions: 150000001 cycles: 228438497 heartbeat IPC: 0.464563 cumulative IPC: 0.465884 (Simulation time: 0 hr 13 min 13 sec) 
*** Reached end of trace for Core: 0 Repeating trace: traces/spec2k17/srv_65.champsimtrace.xz
Heartbeat CPU 0 instructions: 160000003 cycles: 249819024 heartbeat IPC: 0.467715 cumulative IPC: 0.46605 (Simulation time: 0 hr 14 min 14 sec) 
Heartbeat CPU 0 instructions: 170000002 cycles: 271345965 heartbeat IPC: 0.464534 cumulative IPC: 0.465923 (Simulation time: 0 hr 15 min 13 sec) 
Heartbeat CPU 0 instructions: 180000000 cycles: 292852820 heartbeat IPC: 0.464968 cumulative IPC: 0.46585 (Simulation time: 0 hr 16 min 13 sec) 
*** Reached end of trace for Core: 0 Repeating trace: traces/spec2k17/srv_65.champsimtrace.xz
Heartbeat CPU 0 instructions: 190000003 cycles: 314009808 heartbeat IPC: 0.472657 cumulative IPC: 0.466329 (Simulation time: 0 hr 17 min 11 sec) 
Heartbeat CPU 0 instructions: 200000002 cycles: 335651361 heartbeat IPC: 0.462074 cumulative IPC: 0.466043 (Simulation time: 0 hr 18 min 12 sec) 
Heartbeat CPU 0 instructions: 210000000 cycles: 357181411 heartbeat IPC: 0.464467 cumulative IPC: 0.465944 (Simulation time: 0 hr 19 min 14 sec) 
*** Reached end of trace for Core: 0 Repeating trace: traces/spec2k17/srv_65.champsimtrace.xz
Heartbeat CPU 0 instructions: 220000000 cycles: 378296525 heartbeat IPC: 0.473594 cumulative IPC: 0.466388 (Simulation time: 0 hr 20 min 14 sec) 
Heartbeat CPU 0 instructions: 230000001 cycles: 399847159 heartbeat IPC: 0.464024 cumulative IPC: 0.466256 (Simulation time: 0 hr 21 min 14 sec) 
Heartbeat CPU 0 instructions: 240000000 cycles: 421433106 heartbeat IPC: 0.463264 cumulative IPC: 0.466097 (Simulation time: 0 hr 22 min 16 sec) 
*** Reached end of trace for Core: 0 Repeating trace: traces/spec2k17/srv_65.champsimtrace.xz
Heartbeat CPU 0 instructions: 250000002 cycles: 442583508 heartbeat IPC: 0.472804 cumulative IPC: 0.466428 (Simulation time: 0 hr 23 min 15 sec) 
Finished CPU 0 instructions: 200000001 cycles: 428790686 cumulative IPC: 0.466428 (Simulation time: 0 hr 23 min 15 sec) 

ChampSim completed all CPUs

Region of Interest Statistics

CPU 0 cumulative IPC: 0.466428 instructions: 200000001 cycles: 428790686
ITLB TOTAL     ACCESS:   31224863  HIT:   30422153  MISS:     802710  HIT %:    97.4293  MISS %:    2.57074   MPKI: 4.01355
ITLB LOAD TRANSLATION ACCESS:   31224863  HIT:   30422153  MISS:     802710  HIT %:    97.4293  MISS %:    2.57074   MPKI: 4.01355
ITLB PREFETCH  REQUESTED:          0  ISSUED:          0  USEFUL:          0  USELESS:          0
ITLB USEFUL LOAD PREFETCHES:          0 PREFETCH ISSUED TO LOWER LEVEL:          0  ACCURACY: -nan
ITLB TIMELY PREFETCHES:          0 LATE PREFETCHES: 0 DROPPED PREFETCHES: 0
ITLB PREFETCHES SAME FILL-ORIGIN LEVEL: 0 DIFFERENT FILL-ORIGIN LEVEL: 0
ITLB AVERAGE MISS LATENCY: 13.2303 cycles
ITLB RQ	ACCESS:   38109033	FORWARD:          0	MERGED:    6681117	TO_CACHE:   31427916

DTLB TOTAL     ACCESS:   36926608  HIT:   34577563  MISS:    2349045  HIT %:    93.6386  MISS %:    6.36139   MPKI: 11.7452
DTLB LOAD TRANSLATION ACCESS:   36926608  HIT:   34577563  MISS:    2349045  HIT %:    93.6386  MISS %:    6.36139   MPKI: 11.7452
DTLB PREFETCH  REQUESTED:          0  ISSUED:          0  USEFUL:          0  USELESS:          0
DTLB USEFUL LOAD PREFETCHES:          0 PREFETCH ISSUED TO LOWER LEVEL:          0  ACCURACY: -nan
DTLB TIMELY PREFETCHES:          0 LATE PREFETCHES: 0 DROPPED PREFETCHES: 0
DTLB PREFETCHES SAME FILL-ORIGIN LEVEL: 0 DIFFERENT FILL-ORIGIN LEVEL: 0
DTLB AVERAGE MISS LATENCY: 13.6913 cycles
DTLB RQ	ACCESS:   47385423	FORWARD:          0	MERGED:   10306444	TO_CACHE:   37078979

STLB TOTAL     ACCESS:    3701608  HIT:    3387009  MISS:     314599  HIT %:     91.501  MISS %:    8.49898   MPKI: 1.57299
STLB LOAD TRANSLATION ACCESS:    3151755  HIT:    2837157  MISS:     314598  HIT %:    90.0183  MISS %:    9.98168   MPKI: 1.57299
STLB TRANSLATION FROM L1D PREFETCHER ACCESS:     549853  HIT:     549852  MISS:          1  HIT %:    99.9998  MISS %: 0.000181867   MPKI: 5e-06
STLB PREFETCH  REQUESTED:          0  ISSUED:          0  USEFUL:          1  USELESS:          0
STLB USEFUL LOAD PREFETCHES:          1 PREFETCH ISSUED TO LOWER LEVEL:          0  ACCURACY: inf
STLB TIMELY PREFETCHES:          1 LATE PREFETCHES: 0 DROPPED PREFETCHES: 8792
STLB PREFETCHES SAME FILL-ORIGIN LEVEL: 0 DIFFERENT FILL-ORIGIN LEVEL: 0
STLB AVERAGE MISS LATENCY: 45.5343 cycles
STLB RQ	ACCESS:    3818945	FORWARD:          0	MERGED:     106945	TO_CACHE:    3712000

STLB Hit, L1D data hit: 0
STLB Hit, L2C data hit: 0
STLB Hit, LLC data hit: 0
STLB Hit, LLC data miss: 0
STLB STLB hints to L2: 0
L1D TOTAL     ACCESS:   47492047  HIT:   44981973  MISS:    2510074  HIT %:    94.7147  MISS %:    5.28525   MPKI: 12.5504
L1D LOAD      ACCESS:   27378430  HIT:   25251297  MISS:    2127133  HIT %:    92.2306  MISS %:    7.76938   MPKI: 10.6357
L1D RFO       ACCESS:   19457698  HIT:   19125738  MISS:     331960  HIT %:    98.2939  MISS %:    1.70606   MPKI: 1.6598
L1D PREFETCH  ACCESS:     655919  HIT:     604938  MISS:      50981  HIT %:    92.2275  MISS %:    7.77245   MPKI: 0.254905
AGUS PREFETCH L1 MISS: 0
L1D PREFETCH  REQUESTED:    1355764  ISSUED:    1355764  USEFUL:        249  USELESS:      50719
L1D USEFUL LOAD PREFETCHES:        249 PREFETCH ISSUED TO LOWER LEVEL:      50981  ACCURACY: 0.488417
L1D TIMELY PREFETCHES:        249 LATE PREFETCHES: 0 DROPPED PREFETCHES: 10894
L1D PREFETCHES SAME FILL-ORIGIN LEVEL: 50981 DIFFERENT FILL-ORIGIN LEVEL: 0
L1D AVERAGE MISS LATENCY: 43.8321 cycles
L1D RQ	ACCESS:   41967006	FORWARD:          0	MERGED:   14225639	TO_CACHE:   27518782
L1D WQ	ACCESS:   20212215	FORWARD:     222585	MERGED:     345574	TO_CACHE:   19866641
L1D PQ	ACCESS:     688574	FORWARD:          0	MERGED:      21384	TO_CACHE:     667190

L1D UNIQUE REGIONS ACCESSED: 0
L1D REGIONS CONFLICTS: 0
L1D Cross Page Prefetch Requests: 373133
L1D Same Page Prefetch Requests: 315441
L1D ROI Sum of L1D PQ occupancy: 8658080
L1D PREFETCHES PUSHED FROM L2C: 0
L1I TOTAL     ACCESS:   36280165  HIT:   31175731  MISS:    5104434  HIT %:    85.9305  MISS %:    14.0695   MPKI: 25.5222
L1I LOAD      ACCESS:   36280165  HIT:   31175731  MISS:    5104434  HIT %:    85.9305  MISS %:    14.0695   MPKI: 25.5222
L1I PREFETCH  REQUESTED:          0  ISSUED:          0  USEFUL:          0  USELESS:          0
L1I USEFUL LOAD PREFETCHES:          0 PREFETCH ISSUED TO LOWER LEVEL:          0  ACCURACY: -nan
L1I TIMELY PREFETCHES:          0 LATE PREFETCHES: 0 DROPPED PREFETCHES: 0
L1I PREFETCHES SAME FILL-ORIGIN LEVEL: 0 DIFFERENT FILL-ORIGIN LEVEL: 0
L1I AVERAGE MISS LATENCY: 24.6029 cycles
L1I RQ	ACCESS:   57192149	FORWARD:          0	MERGED:   19083116	TO_CACHE:   38109033

BTB TOTAL     ACCESS:   22272077  HIT:   18096398  MISS:    4175679  HIT %:    81.2515  MISS %:    18.7485   MPKI: 20.8784
BTB BRANCH_DIRECT_JUMP	ACCESS:    1788227  HIT:    1559566  MISS:     228661
BTB BRANCH_INDIRECT	ACCESS:    9557706  HIT:    7536372  MISS:    2021334
BTB BRANCH_CONDITIONAL	ACCESS:    4545175  HIT:    4171652  MISS:     373523
BTB BRANCH_DIRECT_CALL	ACCESS:    2503115  HIT:    2056656  MISS:     446459
BTB BRANCH_INDIRECT_CALL	ACCESS:     686553  HIT:     645372  MISS:      41181
BTB BRANCH_RETURN	ACCESS:    3191301  HIT:    2126780  MISS:    1064521
BTB BRANCH_OTHER ACCESS:          0  HIT:          0  MISS:          0

L2C TOTAL     ACCESS:    9054710  HIT:    6014043  MISS:    3040667  HIT %:    66.4189  MISS %:    33.5811   MPKI: 15.2033
L2C LOAD      ACCESS:    7231456  HIT:    4559603  MISS:    2671853  HIT %:    63.0524  MISS %:    36.9476   MPKI: 13.3593
L2C DATA LOAD MPKI: 4.52424
L2C INSTRUCTION LOAD MPKI: 8.83502
L2C RFO       ACCESS:     331960  HIT:     187914  MISS:     144046  HIT %:    56.6074  MISS %:    43.3926   MPKI: 0.72023
L2C PREFETCH  ACCESS:      50981  HIT:      43986  MISS:       6995  HIT %:    86.2792  MISS %:    13.7208   MPKI: 0.034975
AGUS PREFETCH L1 MISS: 0
L2C DATA PREFETCH MPKI: 0.034975
L2C INSTRUCTION PREFETCH MPKI: 0
L2C WRITEBACK ACCESS:    1012405  HIT:     960663  MISS:      51742  HIT %:    94.8892  MISS %:     5.1108   MPKI: 0.25871
L2C LOAD TRANSLATION ACCESS:     416553  HIT:     250818  MISS:     165735  HIT %:    60.2127  MISS %:    39.7873   MPKI: 0.828675
L2C TRANSLATION FROM L1D PREFETCHER ACCESS:      11355  HIT:      11059  MISS:        296  HIT %:    97.3932  MISS %:    2.60678   MPKI: 0.00148
L2C PREFETCH  REQUESTED:          0  ISSUED:          0  USEFUL:        300  USELESS:       6944
L2C USEFUL LOAD PREFETCHES:        300 PREFETCH ISSUED TO LOWER LEVEL:       6995  ACCURACY: 4.28878
L2C TIMELY PREFETCHES:        300 LATE PREFETCHES: 0 DROPPED PREFETCHES: 0
L2C PREFETCHES SAME FILL-ORIGIN LEVEL: 0 DIFFERENT FILL-ORIGIN LEVEL: 0
L2C AVERAGE MISS LATENCY: 43.6159 cycles
L2C RQ	ACCESS:    7991435	FORWARD:          0	MERGED:          0	TO_CACHE:    7991324
L2C WQ	ACCESS:    1012405	FORWARD:        111	MERGED:          0	TO_CACHE:    1012405
L2C PQ	ACCESS:      50981	FORWARD:          0	MERGED:          0	TO_CACHE:      50981

L2C Instructions Evicting Data 633649
L2C Translations Evicting Data 62012
L2C Data Evicting Data 393044
L2C Instructions Evicting Instructions 1039105
L2C Translations Evicting Instructions 94809
L2C Data Evicting Instructions 602581
L2C Instructions Evicting Translations 94250
L2C Translations Evicting Translations 9210
L2C Data Evicting Translations 60265
L2C Dense regions hint from L2: 0
PSCL5 TOTAL     ACCESS:     323391  HIT:     323391  MISS:          0  HIT %:        100  MISS %:          0   MPKI: 0
PSCL5 LOAD TRANSLATION ACCESS:     314598  HIT:     314598  MISS:          0  HIT %:        100  MISS %:          0   MPKI: 0
PSCL5 TRANSLATION FROM L1D PREFETCHER ACCESS:       8793  HIT:       8793  MISS:          0  HIT %:        100  MISS %:          0   MPKI: 0
PSCL5 PREFETCH  REQUESTED:          0  ISSUED:          0  USEFUL:          0  USELESS:          0
PSCL5 USEFUL LOAD PREFETCHES:          0 PREFETCH ISSUED TO LOWER LEVEL:          0  ACCURACY: -nan
PSCL5 TIMELY PREFETCHES:          0 LATE PREFETCHES: 0 DROPPED PREFETCHES: 0
PSCL5 PREFETCHES SAME FILL-ORIGIN LEVEL: 0 DIFFERENT FILL-ORIGIN LEVEL: 0

PSCL4 TOTAL     ACCESS:     315019  HIT:     313467  MISS:       1552  HIT %:    99.5073  MISS %:   0.492669   MPKI: 0.00776
PSCL4 LOAD TRANSLATION ACCESS:     308007  HIT:     306455  MISS:       1552  HIT %:    99.4961  MISS %:   0.503885   MPKI: 0.00776
PSCL4 TRANSLATION FROM L1D PREFETCHER ACCESS:       7012  HIT:       7012  MISS:          0  HIT %:        100  MISS %:          0   MPKI: 0
PSCL4 PREFETCH  REQUESTED:          0  ISSUED:          0  USEFUL:          0  USELESS:          0
PSCL4 USEFUL LOAD PREFETCHES:          0 PREFETCH ISSUED TO LOWER LEVEL:          0  ACCURACY: -nan
PSCL4 TIMELY PREFETCHES:          0 LATE PREFETCHES: 0 DROPPED PREFETCHES: 0
PSCL4 PREFETCHES SAME FILL-ORIGIN LEVEL: 0 DIFFERENT FILL-ORIGIN LEVEL: 0

PSCL3 TOTAL     ACCESS:     322210  HIT:     320658  MISS:       1552  HIT %:    99.5183  MISS %:   0.481673   MPKI: 0.00776
PSCL3 LOAD TRANSLATION ACCESS:     313417  HIT:     311865  MISS:       1552  HIT %:    99.5048  MISS %:   0.495187   MPKI: 0.00776
PSCL3 TRANSLATION FROM L1D PREFETCHER ACCESS:       8793  HIT:       8793  MISS:          0  HIT %:        100  MISS %:          0   MPKI: 0
PSCL3 PREFETCH  REQUESTED:          0  ISSUED:          0  USEFUL:          0  USELESS:          0
PSCL3 USEFUL LOAD PREFETCHES:          0 PREFETCH ISSUED TO LOWER LEVEL:          0  ACCURACY: -nan
PSCL3 TIMELY PREFETCHES:          0 LATE PREFETCHES: 0 DROPPED PREFETCHES: 0
PSCL3 PREFETCHES SAME FILL-ORIGIN LEVEL: 0 DIFFERENT FILL-ORIGIN LEVEL: 0

PSCL2 TOTAL     ACCESS:     320830  HIT:     221978  MISS:      98852  HIT %:    69.1887  MISS %:    30.8113   MPKI: 0.49426
PSCL2 LOAD TRANSLATION ACCESS:     314599  HIT:     215747  MISS:      98852  HIT %:    68.5784  MISS %:    31.4216   MPKI: 0.49426
PSCL2 TRANSLATION FROM L1D PREFETCHER ACCESS:       6231  HIT:       6231  MISS:          0  HIT %:        100  MISS %:          0   MPKI: 0
PSCL2 PREFETCH  REQUESTED:          0  ISSUED:          0  USEFUL:          0  USELESS:          0
PSCL2 USEFUL LOAD PREFETCHES:          0 PREFETCH ISSUED TO LOWER LEVEL:          0  ACCURACY: -nan
PSCL2 TIMELY PREFETCHES:          0 LATE PREFETCHES: 0 DROPPED PREFETCHES: 0
PSCL2 PREFETCHES SAME FILL-ORIGIN LEVEL: 0 DIFFERENT FILL-ORIGIN LEVEL: 0

LLC TOTAL     ACCESS:    3412444  HIT:    3129842  MISS:     282602  HIT %:    91.7185  MISS %:    8.28151   MPKI: 1.41301
LLC LOAD      ACCESS:    2671853  HIT:    2447798  MISS:     224055  HIT %:    91.6142  MISS %:    8.38575   MPKI: 1.12027
LLC RFO       ACCESS:     144046  HIT:      96853  MISS:      47193  HIT %:    67.2375  MISS %:    32.7625   MPKI: 0.235965
LLC PREFETCH  ACCESS:       6995  HIT:       6903  MISS:         92  HIT %:    98.6848  MISS %:    1.31523   MPKI: 0.00046
AGUS PREFETCH L1 MISS: 0
LLC WRITEBACK ACCESS:     423519  HIT:     421677  MISS:       1842  HIT %:    99.5651  MISS %:   0.434927   MPKI: 0.00921
LLC LOAD TRANSLATION ACCESS:     165735  HIT:     156315  MISS:       9420  HIT %:    94.3162  MISS %:    5.68377   MPKI: 0.0471
LLC TRANSLATION FROM L1D PREFETCHER ACCESS:        296  HIT:        296  MISS:          0  HIT %:        100  MISS %:          0   MPKI: 0
LLC PREFETCH  REQUESTED:          0  ISSUED:          0  USEFUL:          0  USELESS:         38
LLC USEFUL LOAD PREFETCHES:          0 PREFETCH ISSUED TO LOWER LEVEL:         92  ACCURACY: 0
LLC TIMELY PREFETCHES:          0 LATE PREFETCHES: 0 DROPPED PREFETCHES: 0
LLC PREFETCHES SAME FILL-ORIGIN LEVEL: 0 DIFFERENT FILL-ORIGIN LEVEL: 0
LLC AVERAGE MISS LATENCY: 151.989 cycles
LLC RQ	ACCESS:    2981930	FORWARD:          0	MERGED:          0	TO_CACHE:    2981930
LLC WQ	ACCESS:     423519	FORWARD:          0	MERGED:          0	TO_CACHE:     423519
LLC PQ	ACCESS:       6995	FORWARD:          0	MERGED:          0	TO_CACHE:       6995

LLC Dense regions hint to LLC: 0

RAW hits: 2860389
Loads Generated: 44827397
Loads sent to L1D: 41967006
Stores Generated: 20212209
Stores sent to L1D: 20212215
Major fault: 0 Minor fault: 5727
Allocated PAGES: 5727
ucb ended
-----------------------------------------------------------------------------------------------------------------------------------------------------------------------------------------------------
Offsets elements: 4397629444614 -1 -4397629502613 -389515539 388932214 -2780667 2794863 518095 -2 6 -532295 549178 4397629536762 -722450 9056641 9480 8192 -17673 -145511 -4397638274616 4397638437801 -4397638437802 4397638442778 -22337 -4397638416378 528231 -4 -528208 4397630081853 -4397630085933 641326 -58000 -3363992 4397632866602 -4397630071920 1 -9954 9954 485413 -475459 475459 -485412 519334 -519334 4397630081874 -4397630081874 4397629359426 -4397629349473 4397637162128 -4397636645895 -333656 -85360 -61355 4397636780593 -4397636780593 4397630036059 -4397630036059 4397629313611 -3 -4397629349470 4397637984048 -4397637984047 35862 -35862 4397630036058 4397633074298 5332144 -8334455 -74 288223780706293376 -2200618112446 2200618112446 1142572 -574608 3684 -21392 563728 -1113738 1113738 3 205 -208 -1113736 2 -250 254 -288223780706293556 -4398019018413 4398018295963 10 8911346 -8911356 722452 -722445 722446 7090209 -7090209 -4397629555686 4397630036057 -4397630071919 -9953 -4397630071921 4397630071919 -4397629596460 4397629596462 -4397630081875 9953 4397630071922 8343673 -8343671 -4397630085937 4062 4397630081875 -4397630085939 4397638274617 145512 22650 17361 -8351865 -4397630085938 489474 43077 4397629553385 -9480 -145512 145511 17673 4976 -8334505 8334192 -4397629363488 4397632866605 532288 16883 -16887 4397629553648 -388932214 388946409 4397630071743 8343671 -4397638429610 4397630085940 -722451 -4397629363487 532294 4397630081858 8334191 -8334508 4397629502609 -4397632866601 2794682 4397628840092 -4397637172081 526186 4397636633878 -7466982 -4397629252256 4397629313608 288223780706293302 -1113739 1113741 1113736 -1113735 4 5 1113939 -1114193 1114192 -288223780707407494 -73 -722440 -4398018295973 722453 8188903 -8911349 722445 7090210 4397629889342 -4397629974702 4397630071920 -4397629562540 -509380 475458 -485413 8343670 -4397638437801 4397630081873 -4397637897122 4397637887641 17672 -17361 22337 -8356842 4977 -4976 -4397629444614 4397629444612 583325 4397629502613 -4398019018152 386151547 -4397632866606 2780668 4397629553649 -4397630071744 4397638415414 -8343670 549176 -549177 4397629553650 -4397630081858 -4079 4397630085937 4397638416066 4397629444609 -4397629502609 4397629349473 7812655 516233 -6852 -326804 61355 4397629252256 -567718 -246 -1142325 567710 -567964 255 571393 -550005 1113732 -1113733 1113735 1113940 -1113938 7 1098694 -4397638260822 -192530 107170 -4397629562538 -4397629596462 -4397638420128 4397638437800 -4397629502614 2780667 -2780668 4397632866606 4398019018152 -4397629553650 -532290 4397630085939 -4397638429608 4397630085938 -4397628814311 571402 -550008 1113737 1113938 251 1113941 -1113940 -722446 4397629562538 4397630081877 -4397630071923 -4397638438715 4397638416378 2794683 -4397637162128 -1113737 1113937 -1113941 1113942 252 4397630081872 -4397630081872 33922 8334190 -4397638433739 8188680 -4397636719238 -1142326 567718 -4397630036057 -9955 4397629562542 -7 -7090210 -4397629555685 4397629555686 -4397629889342 -146715 97217 -97217 509380 -33922 -4398019018412 722451 -722441 722440 8911356 -8188903 4397637742130 -4397629502612 3421993 4397629502611 -8343672 4397629553647 6744570 -6744569 -4397629363489 641325 4397637788284 -6 16889 -389481391 386151546 -386151546 -4397499102836 -130983102 4397638420129 -4397632866605 133763774 9 4397498030183 -4397631793973 4397632144156 -388931256 388931255 -2780666 3270538 -389421127 389421127 -3270539 4397639604672 -4397639604671 3612892 -8413 -3607801 3616213 -8414 7990 -7989 4397628539669 -4397632144146 3604477 7989 -3612468 8413 7991 424 4397629262121 -4397629253709 4397628531257 -4397629363483 -2780662 4397641200792 -4397632144145 4397639604667 383806 -4397636717942 -489869 4397629363488 -4397628722163 4397636247249 -6744639 8343674 -4398027360865 386150589 4397629596064 -4397632866603 -4398025755260 -389421126 389421126 -6738069 4397632866603 -722447 -4397632144156 3310915 -530247 130930640 -130400386 77899 4397629477783 -4397632866604 4397632866604 4397638429609 -17360 -4398019018153 4398019018153 -14195 532289 -4397638416066 4397638270554 -3363990 2794680 -1113730 -4397629889341 333656 17360 -8351866 4397629363487 -8351868 -4398019018411 17674 2780665 -288223780706293555 -4398019018414 4398019018413 -4397638433738 4397638416065 163185 -4397630036058 4397633038436 -1113944 4398018295973 -10 4397629553644 4397638274616 4397638433738 -8356845 4397629252253 4397637948186 -1113945 1113733 -1113734 -71 288223780706293375 -288223780706293374 549177 9066121 14195 -4081 4397638420130 -4397629313608 4397636816455 1167593 -1113740 1113730 -1113939 -288223780706293302 4063 -163184 8356842 -8334503 -4397637897321 4397630071744 -549178 -4397629553644 -528210 4397630071921 6852 -1114192 1114193 -288223780707407495 8188678 -583325 -2780665 509381 -571400 550009 -550007 1113734 1113731 -254 4397629596460 -4397630081877 4397638416068 -4397638420129 550008 -550009 -1113731 -154992 4397638438715 2794681 -4397629562542 4397629562540 -4397632866599 2794679 -2794680 4398027207319 -8911346 -4397630071922 4397630071924 -8351869 1113943 288223780706293373 -288223780706293375 389464502 -2200618011134 -13940 2200629775495 -230 -11750191 1142564 10607579 -11750143 -3280339 -8390683 -9 23421170 -15029463 -2200614744500 2200606352780 23421183 -23421182 8391720 15029507 602 -2200629773278 2200614742236 15031044 -452 -2200629752428 -13994 2200629766221 -2200629752227 2200629752426 2200629752226 200 -200 199 -11126738 11126739 -11126740 11126740 1536 -1535 1537 -7936 2304 -2303 7935 11125221 -17 -203 -2200629775458 2200618648921 11126738 -11126737 -49957 -26 15 11176506 -11176506 -2200618598957 2200618598946 49740 -2200618648695 2200618025335 11750186 -2200629775521 2200629775907 -386 -11176551 -15 11176986 -2200629775932 1642 2200629773816 472 -471 -2200629775390 2200618598886 11176974 -11176985 -2200618683539 2200618683553 -13 62237 506688 10608056 -10608057 -506691 506690 -506690 506691 -312 313 20 -626066 11233628 -11114271 -62237 11176981 62234 -62236 62238 62239 -62212 -31 31 11176921 36 -11114748 -12500 2200629775721 -11114523 11114745 -11235926 81254 -81253 121179 -121178 121176 -39907 11154622 -11154624 11154654 -33 -11154621 11154180 -11154181 11154621 11154619 -439 -11114274 -2200618597479 2200618659716 568616 -568616 10607896 22329 11154620 34 -11154655 11154618 -11154618 32 -2200629761278 2200614732334 3874289 11154183 436 -437 -11176516 568928 -2200619252467 86062 2200629774462 -10608058 -1142551 635860 506699 -568928 568920 -10608056 -568929 2200618597480 -8 22330 11154653 -1142548 11750608 -11750608 11750134 -10607584 471 11750606 -470 -11176515 -2200618683538 2200629860526 -473 435 -11176926 11176492 201 -11125203 11125203 -11125204 7937 2303 -2305 11133140 -2200629775457 2200629775458 -11125000 11125202 -11177240 14 11 51785 -624896 573111 -2200618598437 2200629775521 386 -11177457 11177506 -2200629773817 2200629773818 -472 -11177035 11177494 -11177503 -2200618598357 2200618598356 -2200618683020 2200618745781 11114747 -506688 -62761 62758 -11114746 -62756 62759 -62732 11177441 -10964 10967 -2200618661198 2200629775943 11235704 -11154450 11154624 33 -11154654 11154623 -11154619 -11154622 -2200618659716 2200618596959 62757 506378 -569136 520 
Potential of Offsets elements: 28.0063 830.006 28.0063 28.0063 28.0063 28.0063 28.0063 28.0063 597.006 265.006 105.006 31.0063 28.0063 28.0063 28.0063 138.006 127.006 304.006 149.006 112.006 385.006 358.006 270.006 172.006 109.006 56.0063 578.006 46.0063 55.0063 379.006 82.0063 53.0063 28.0063 28.0063 28.0063 1772.01 28.0063 28.0063 28.0063 28.0063 28.0063 28.0063 28.0063 28.0063 28.0063 28.0063 28.0063 28.0063 28.0063 28.0063 28.0063 28.0063 28.0063 28.0063 28.0063 28.0063 28.0063 28.0063 414.006 28.0063 28.0063 28.0063 28.0063 28.0063 28.0063 28.0063 28.0063 28.0063 28.0063 28.0063 28.0063 28.0063 28.0063 28.0063 28.0063 28.0063 28.0063 28.0063 28.0063 1862.01 28.0063 28.0063 28.0063 30.4335 28.0063 28.0063 28.0063 28.0063 28.0063 185.006 28.0063 28.0063 28.0063 28.0063 28.0063 28.0063 28.0063 28.0063 28.0063 28.0063 28.0063 28.0063 28.0063 28.0063 28.0063 28.0063 28.0063 28.0063 28.0063 28.0063 28.0063 28.0063 28.0063 28.0063 28.0063 34.0063 43.0063 28.0063 28.0063 28.0063 28.0063 28.0063 28.0063 28.0063 44.0063 28.0063 28.0063 28.0063 28.0063 28.0063 28.0063 28.0063 88.0063 28.0063 28.0063 28.0063 28.0063 28.0063 28.0063 28.0063 28.0063 28.0063 28.0063 28.0063 82.0063 28.0063 28.0063 28.0063 28.0063 28.0063 28.0063 28.0063 28.0063 28.0063 28.0063 28.0063 28.0063 28.0063 28.0063 28.0063 28.0063 28.0063 28.0063 607.006 550.006 28.0063 28.0063 28.0063 28.0063 28.0063 28.0063 28.0063 28.0063 28.0063 28.0063 28.0063 28.0063 28.0063 28.0063 28.0063 28.0063 28.0063 28.0063 28.0063 28.0063 28.0063 81.0063 28.0063 28.0063 28.0063 28.0063 37.0063 80.0063 172.006 172.006 112.006 53.0063 166.006 46.0063 28.0063 28.0063 28.0063 28.0063 28.0063 28.0063 28.0063 28.0063 28.0063 28.0063 28.0063 28.0063 28.0063 28.0063 28.0063 28.0063 28.0063 28.0063 28.0063 28.0063 28.0063 28.0063 28.0063 28.0063 28.0063 28.0063 28.0063 28.0063 28.0063 28.0063 28.0063 28.0063 28.0063 28.0063 28.0063 28.0063 28.0063 171.006 28.0063 28.0063 28.0063 28.0063 28.0063 28.0063 28.0063 28.0063 28.0063 28.0063 28.0063 28.0063 28.0063 28.0063 28.0063 28.0063 28.0063 28.0063 28.0063 28.0063 28.0063 28.0063 28.0063 64.0063 28.0063 28.0063 28.0063 28.0063 28.0063 28.0063 28.0063 37.0063 28.0063 28.0063 28.0063 28.0063 28.0063 28.0063 76.0063 28.0063 28.0063 28.0063 28.0063 28.0063 28.0063 28.0063 28.0063 28.0063 28.0063 28.0063 28.0063 145.006 28.0063 34.0063 28.0063 28.0063 28.0063 28.0063 80.0063 88.0063 100.006 37.0063 329.006 37.0063 32.0063 49.0063 64.0063 39.0063 64.0063 28.0063 208.006 118.006 100.006 28.0063 28.0063 148.006 154.006 73.0063 391.006 34.0063 28.0063 28.0063 28.0063 28.0063 28.0063 496.006 28.0063 28.0063 63.0063 28.0063 28.0063 28.0063 28.0063 28.0063 28.0063 28.0063 28.0063 28.0063 28.0063 28.0063 28.0063 28.0063 28.0063 28.0063 28.0063 28.0063 28.0063 28.0063 28.0063 28.0063 28.0063 28.0063 28.0063 28.0063 28.0063 28.0063 28.0063 28.0063 28.0063 34.0063 28.0063 28.0063 28.0063 28.0063 28.0063 28.0063 28.0063 28.0063 28.0063 28.0063 28.0063 28.0063 28.0063 28.0063 28.0063 28.0063 28.0063 28.0063 28.0063 28.0063 28.0063 28.0063 28.0063 28.0063 28.0063 28.0063 28.0063 28.0063 28.0063 28.0063 28.0063 28.0063 28.0063 28.0063 28.0063 28.0063 28.0063 28.0063 28.0063 28.0063 28.0063 28.0063 28.0063 28.0063 28.0063 28.0063 28.0063 28.0063 28.0063 28.0063 28.0063 28.0063 28.0063 28.0063 28.0063 28.0063 28.0063 28.0063 28.0063 28.0063 28.0063 211.006 28.0063 28.0063 28.0063 28.0063 28.0063 28.0063 28.0063 28.0063 28.0063 28.0063 28.0063 28.0063 28.0063 28.0063 37.0063 28.0063 28.0063 28.0063 28.0063 28.0063 28.0063 28.0063 28.0063 28.0063 28.0063 40.0063 28.0063 28.0063 28.0063 28.0063 28.0063 28.0063 28.0063 28.0063 28.0063 28.0063 28.0063 28.0063 28.0063 28.0063 28.0063 28.0063 28.0063 28.0063 28.0063 28.0063 28.0063 30.0063 28.0063 28.0063 28.0063 28.0063 28.0063 28.0063 28.0063 116.006 28.0063 28.0063 28.0063 28.0063 28.0063 28.0063 28.0063 28.0063 28.0063 28.0063 28.0063 28.0063 28.0063 28.0063 93.0063 36.0063 28.0063 28.0063 28.0063 28.0063 28.0063 28.0063 28.0063 28.0063 28.0063 28.0063 79.0063 28.0063 28.0063 28.0063 28.0063 28.0063 28.0063 28.0063 28.0063 28.0063 28.0063 28.0063 28.0063 28.0063 28.0063 28.0063 28.0063 28.0063 28.0063 28.0063 28.0063 28.0063 40.0063 28.0063 28.0063 28.0063 28.0063 51.0063 28.0063 28.0063 28.0063 28.0063 28.0063 38.0063 31.0063 42.0063 30.0063 28.0063 28.0063 28.0063 28.0063 28.0063 28.0063 28.0063 28.0063 28.0063 28.0063 28.0063 28.0063 28.0063 28.0063 28.0063 28.0063 28.0063 28.0063 28.0063 28.0063 28.0063 28.0063 28.0063 28.0063 28.0063 28.0063 28.0063 28.0063 28.0063 28.0063 28.0063 28.0063 28.0063 28.0063 28.0063 28.0063 28.0063 295.006 178.006 28.0063 28.0063 28.0063 28.0063 1929.12 28.0063 28.0063 28.0063 28.0063 28.0063 28.0063 28.0063 28.0063 28.0063 28.0063 40.0063 199.006 28.0063 43.0063 28.0063 28.0063 28.0063 28.0063 28.0063 28.0063 28.0063 28.0063 28.0063 28.0063 28.0063 28.0063 28.0063 52.0063 35.0063 108.006 28.0063 28.0063 28.0063 28.0063 28.0063 28.0063 28.0063 28.0063 28.0063 28.0063 28.0063 28.0063 28.0063 28.0063 31.0063 28.0063 28.0063 28.0063 28.0063 31.0063 28.0063 28.0063 28.0063 28.0063 28.0063 28.0063 28.0063 28.0063 28.0063 28.0063 28.0063 28.0063 28.0063 28.0063 28.0063 28.0063 28.0063 28.0063 28.0063 144.006 28.0063 28.0063 28.0063 28.0063 28.0063 28.0063 28.0063 28.0063 28.0063 28.0063 28.0063 28.0063 28.0063 28.0063 28.0063 28.0063 28.0063 30.0063 28.0063 28.0063 28.0063 28.0063 28.0063 28.0063 28.0063 28.0063 28.0063 28.0063 28.0063 28.0063 28.0063 46.0063 28.0063 28.0063 28.0063 28.0063 28.0063 28.0063 28.0063 28.0063 138.006 28.0063 28.0063 28.0063 63.0063 84.0063 28.0063 28.0063 28.0063 28.0063 28.0063 28.0063 28.0063 28.0063 28.0063 28.0063 28.0063 28.0063 28.0063 28.0063 28.0063 28.0063 28.0063 28.0063 28.0063 28.0063 28.0063 28.0063 28.0063 28.0063 28.0063 28.0063 28.0063 28.0063 28.0063 28.0063 28.0063 
rewards of Offsets elements: 0 802 0 0 0 0 0 0 569 237 77 3 0 0 0 110 99 276 121 84 357 330 242 144 81 28 550 18 27 351 54 25 0 0 0 1744 0 0 0 0 0 0 0 0 0 0 0 0 0 0 0 0 0 0 0 0 0 0 386 0 0 0 0 0 0 0 0 0 0 0 0 0 0 0 0 0 0 0 0 1834 0 0 0 19 0 0 0 0 0 157 0 0 0 0 0 0 0 0 0 0 0 0 0 0 0 0 0 0 0 0 0 0 0 0 0 6 15 0 0 0 0 0 0 0 16 0 0 0 0 0 0 0 60 0 0 0 0 0 0 0 0 0 0 0 54 0 0 0 0 0 0 0 0 0 0 0 0 0 0 0 0 0 0 579 522 0 0 0 0 0 0 0 0 0 0 0 0 0 0 0 0 0 0 0 0 0 53 0 0 0 0 9 52 144 144 84 25 138 18 0 0 0 0 0 0 0 0 0 0 0 0 0 0 0 0 0 0 0 0 0 0 0 0 0 0 0 0 0 0 0 0 0 0 0 0 0 143 0 0 0 0 0 0 0 0 0 0 0 0 0 0 0 0 0 0 0 0 0 0 0 36 0 0 0 0 0 0 0 9 0 0 0 0 0 0 48 0 0 0 0 0 0 0 0 0 0 0 0 117 0 6 0 0 0 0 52 60 72 9 301 9 4 21 36 11 36 0 180 90 72 0 0 120 126 45 363 6 0 0 0 0 0 468 0 0 35 0 0 0 0 0 0 0 0 0 0 0 0 0 0 0 0 0 0 0 0 0 0 0 0 0 0 0 0 0 0 6 0 0 0 0 0 0 0 0 0 0 0 0 0 0 0 0 0 0 0 0 0 0 0 0 0 0 0 0 0 0 0 0 0 0 0 0 0 0 0 0 0 0 0 0 0 0 0 0 0 0 0 0 0 0 0 0 0 0 0 0 0 183 0 0 0 0 0 0 0 0 0 0 0 0 0 0 9 0 0 0 0 0 0 0 0 0 0 12 0 0 0 0 0 0 0 0 0 0 0 0 0 0 0 0 0 0 0 0 0 2 0 0 0 0 0 0 0 88 0 0 0 0 0 0 0 0 0 0 0 0 0 0 65 8 0 0 0 0 0 0 0 0 0 0 51 0 0 0 0 0 0 0 0 0 0 0 0 0 0 0 0 0 0 0 0 0 12 0 0 0 0 23 0 0 0 0 0 10 3 14 2 0 0 0 0 0 0 0 0 0 0 0 0 0 0 0 0 0 0 0 0 0 0 0 0 0 0 0 0 0 0 0 0 0 0 0 0 0 267 150 0 0 0 0 1929 0 0 0 0 0 0 0 0 0 0 12 171 0 15 0 0 0 0 0 0 0 0 0 0 0 0 0 24 7 80 0 0 0 0 0 0 0 0 0 0 0 0 0 0 3 0 0 0 0 3 0 0 0 0 0 0 0 0 0 0 0 0 0 0 0 0 0 0 0 116 0 0 0 0 0 0 0 0 0 0 0 0 0 0 0 0 0 2 0 0 0 0 0 0 0 0 0 0 0 0 0 18 0 0 0 0 0 0 0 0 110 0 0 0 35 56 0 0 0 0 0 0 0 0 0 0 0 0 0 0 0 0 0 0 0 0 0 0 0 0 0 0 0 0 0 0 0 Printing Sanity3
offset_index value729
offset list size729
reward size729
potential size729
-----------------------------------------------------------------------------------------------------------------------------------------------------------------------------------------------------

DRAM Statistics
 CHANNEL 0
 RQ ROW_BUFFER_HIT:      53307  ROW_BUFFER_MISS:     227452
 DBUS_CONGESTED:        181
 WQ ROW_BUFFER_HIT:      26341  ROW_BUFFER_MISS:     182655  FULL:          0

 AVG_CONGESTED_CYCLE: 4
 All warmup complete: 2
Channel 0 Bank busy for read cycles: 0
Channel 0 Bank busy for write cycles: 0
Channel 0
Rank 0
0banks busy for read cycles: 374987815
0banks busy for write cycles: 118280
1banks busy for read cycles: 25834682
1banks busy for write cycles: 16513524
2banks busy for read cycles: 3510969
2banks busy for write cycles: 3762887
3banks busy for read cycles: 449571
3banks busy for write cycles: 1230523
4banks busy for read cycles: 190500
4banks busy for write cycles: 675130
5banks busy for read cycles: 100020
5banks busy for write cycles: 428920
6banks busy for read cycles: 71986
6banks busy for write cycles: 291078
7banks busy for read cycles: 52761
7banks busy for write cycles: 251928
8banks busy for read cycles: 64421
8banks busy for write cycles: 255692

CPU 0 Branch Prediction Accuracy: 99.8638% MPKI: 0.244845 Average ROB Occupancy at Mispredict: 56.8496
Branch types
NOT_BRANCH: 164053662 82.0268%
BRANCH_DIRECT_JUMP: 1788227 0.894113%
BRANCH_INDIRECT: 9557706 4.77885%
BRANCH_CONDITIONAL: 18219125 9.10956%
BRANCH_DIRECT_CALL: 2503115 1.25156%
BRANCH_INDIRECT_CALL: 686553 0.343276%
BRANCH_RETURN: 3191301 1.59565%
BRANCH_OTHER: 0 0%

DRAM PAGES: 1048576
Allocated PAGES: 5727
