
*** ChampSim Multicore Out-of-Order Simulator ***

Warmup Instructions: 50000000
Simulation Instructions: 200000000
Number of CPUs: 1
LLC sets: 2048
LLC ways: 16
Off-chip DRAM Size: 4096 MB Channels: 1 Width: 64-bit Data Rate: 6400 MT/s
CPU 0 runs traces/spec2k17/srv_2.champsimtrace.xz
.xz
BTB has LRU replacement policy
ITLB has LRU replacement policy
DTLB has LRU replacement policy
STLB has LRU replacement policy
L1I has LRU replacement policy
L1D has LRU replacement policy
Initialize SRRIP state for L2C
Initialize DRRIP state for LLC
Heartbeat CPU 0 instructions: 10000003 cycles: 2770954 heartbeat IPC: 3.60887 cumulative IPC: 3.60887 (Simulation time: 0 hr 0 min 35 sec) 
Heartbeat CPU 0 instructions: 20000000 cycles: 5533950 heartbeat IPC: 3.61926 cumulative IPC: 3.61406 (Simulation time: 0 hr 1 min 13 sec) 
Heartbeat CPU 0 instructions: 30000001 cycles: 8299444 heartbeat IPC: 3.61599 cumulative IPC: 3.6147 (Simulation time: 0 hr 1 min 49 sec) 
*** Reached end of trace for Core: 0 Repeating trace: traces/spec2k17/srv_2.champsimtrace.xz
Heartbeat CPU 0 instructions: 40000000 cycles: 11063647 heartbeat IPC: 3.61768 cumulative IPC: 3.61544 (Simulation time: 0 hr 2 min 25 sec) 
Heartbeat CPU 0 instructions: 50000002 cycles: 13824942 heartbeat IPC: 3.62149 cumulative IPC: 3.61665 (Simulation time: 0 hr 3 min 1 sec) 

Warmup complete CPU 0 instructions: 50000002 cycles: 13824942 (Simulation time: 0 hr 3 min 1 sec) 

Offsets elements: 
Potential of Offsets elements: 
rewards of Offsets elements: 
Printing Sanity1
offset list size2415
Offsets elements: 
Potential of Offsets elements: 
rewards of Offsets elements: 0 0 0 0 0 0 0 0 0 0 0 0 0 0 0 9 0 2382 0 121 0 0 2090 0 0 0 0 0 0 0 0 0 0 0 0 0 0 0 0 0 0 0 0 0 0 0 0 0 0 0 0 0 0 0 0 0 0 0 0 0 0 0 0 0 0 0 0 0 0 0 0 0 0 1122 0 0 94 0 0 0 0 0 0 8 0 0 0 0 0 0 0 0 0 0 0 0 0 0 0 0 0 0 0 0 0 0 0 0 0 0 0 0 0 0 0 0 0 0 0 0 0 0 0 0 0 0 0 0 0 0 0 0 0 0 0 0 0 0 0 0 0 0 0 0 0 0 0 0 0 0 0 0 0 0 0 0 0 0 0 0 0 0 0 0 0 0 0 0 0 0 0 0 1373 0 0 0 0 0 0 105 0 0 0 0 0 0 0 0 0 0 0 0 0 0 0 0 0 0 0 245 0 0 0 0 0 0 0 0 0 0 84 0 0 60 36 0 0 0 0 0 0 0 0 0 0 0 0 0 0 0 0 0 0 0 0 0 0 905 0 0 0 0 0 0 0 0 0 509 219 0 0 0 783 0 0 0 0 0 0 0 0 0 0 0 0 0 0 0 0 0 0 0 0 0 0 0 0 0 0 0 0 0 0 0 0 0 0 0 0 236 0 0 2 0 0 0 0 0 0 141 142 0 137 0 0 0 0 97 0 50 0 0 0 0 1 0 0 0 0 0 24 159 0 0 0 0 13 37 0 423 0 0 0 0 0 889 0 0 2305 768 0 520 1105 0 426 0 0 0 0 0 0 0 0 0 0 0 0 0 0 2 0 0 0 0 0 0 0 0 0 0 0 0 0 522 1 0 0 25 0 0 0 0 72 42 0 0 0 0 0 0 0 0 0 0 6 0 0 0 0 0 0 0 0 0 0 0 0 13 24 0 0 0 0 0 0 0 0 0 0 0 0 0 0 0 0 0 0 0 0 0 0 0 0 0 0 0 0 0 0 0 0 0 0 0 0 0 0 0 0 0 0 0 0 0 0 0 0 0 0 0 0 0 0 0 0 0 0 0 0 0 2 0 0 0 0 0 0 0 0 0 0 0 0 0 0 0 0 0 43 0 0 30 0 0 0 0 0 0 0 0 0 0 0 0 0 0 0 0 0 0 0 0 0 0 0 0 0 0 0 0 0 0 0 0 0 0 0 0 0 0 0 0 0 42 0 0 21 0 0 0 0 0 0 0 0 0 0 0 0 0 0 0 0 0 0 0 0 0 0 0 0 0 0 0 0 0 0 0 0 0 0 0 0 0 0 0 0 0 0 90 0 0 0 0 0 0 0 0 0 0 0 0 0 0 0 0 0 0 0 0 0 0 0 0 0 0 0 0 0 0 0 0 0 0 0 0 0 0 0 0 0 0 0 0 0 0 0 0 0 0 0 0 0 0 0 0 0 0 0 0 0 0 0 0 0 0 0 16 0 1 0 0 0 0 99 0 0 0 7 0 0 0 0 0 0 0 0 0 0 0 0 0 0 0 0 0 0 0 0 0 0 0 0 0 0 4 0 0 0 32 0 0 0 0 0 0 0 0 0 0 0 0 0 0 0 0 0 0 0 0 0 0 0 0 0 0 0 0 0 0 0 0 0 0 0 0 0 0 0 0 0 0 0 0 0 0 0 0 0 0 0 0 0 0 0 0 0 0 0 0 0 0 0 0 0 0 0 0 0 0 0 0 0 0 0 0 0 0 0 0 0 0 0 0 0 0 0 0 0 0 0 0 0 0 0 0 0 0 1 0 0 0 0 0 0 0 0 0 0 0 0 0 0 120 0 0 0 0 0 0 0 0 0 0 0 0 0 0 0 0 0 0 0 0 0 0 1 0 0 0 0 0 0 0 0 0 0 0 0 0 0 0 0 0 0 0 0 1 0 0 0 0 23 0 0 0 0 0 0 0 0 0 0 0 0 18 0 0 0 0 0 0 0 0 0 0 0 0 0 0 0 0 0 0 0 0 0 0 0 0 0 0 0 0 0 0 0 0 0 0 0 0 0 0 0 0 0 0 0 0 0 0 0 0 0 0 0 0 0 0 0 0 0 0 0 0 0 0 0 0 0 0 0 0 0 0 0 0 0 0 0 0 0 0 0 96 0 0 32 12 0 0 0 0 0 0 0 60 0 0 0 0 0 0 258 0 0 0 0 0 0 11 0 0 0 0 0 0 0 0 0 0 0 0 0 0 0 0 10 6 0 0 0 0 0 111 0 0 0 0 14 0 0 0 0 0 0 0 0 0 0 0 0 0 0 0 0 0 0 0 0 0 0 0 0 0 0 0 0 0 0 0 0 0 0 0 0 0 0 0 0 0 0 0 0 0 24 0 0 0 0 0 0 0 0 1 0 0 0 0 0 0 0 0 0 0 0 0 63 0 0 0 0 0 0 0 0 0 0 0 0 0 0 0 0 0 0 0 0 0 0 0 0 0 0 0 0 0 0 0 3 0 0 0 0 0 0 0 0 0 0 0 0 0 0 0 0 0 0 0 0 0 0 0 3 0 0 0 0 0 0 0 121 0 0 0 0 0 0 0 0 0 0 0 0 36 33 24 9 0 68 0 0 0 0 0 0 0 0 0 0 0 0 0 0 0 0 0 0 0 0 0 0 0 0 0 0 0 0 0 0 0 0 0 0 0 0 0 0 5 0 0 0 32 14 0 0 1 9 27 27 6 9 0 36 18 18 0 0 0 0 0 0 0 0 0 0 0 0 0 0 0 0 0 0 0 0 0 0 0 0 0 0 0 0 0 0 0 0 0 0 0 0 0 0 0 0 0 0 0 0 0 0 0 0 0 0 0 0 0 0 0 0 0 0 0 0 0 0 0 0 0 0 0 0 0 0 0 0 0 0 0 0 0 0 0 0 0 0 0 0 0 0 0 0 0 0 0 9 8 0 0 0 0 0 0 0 0 0 0 0 0 0 0 0 0 0 0 0 0 0 0 0 0 0 0 0 6 0 0 0 0 0 0 0 0 0 0 0 0 0 0 0 0 0 0 298 0 0 0 0 0 0 0 0 0 4 0 0 18 0 0 0 0 0 0 0 0 0 0 0 0 0 0 0 0 0 0 0 0 0 0 0 0 0 0 0 0 0 0 0 0 0 0 0 0 0 0 0 0 1 0 0 0 0 0 0 0 0 0 0 0 0 0 0 0 0 0 0 0 0 0 0 0 0 0 0 0 0 0 0 0 0 0 0 0 0 0 0 0 0 0 0 0 0 0 0 0 0 0 0 0 0 0 0 0 0 0 0 0 0 0 0 0 0 0 0 0 0 0 0 0 0 0 0 0 40 0 0 0 0 0 0 0 0 0 0 0 0 0 0 0 0 0 0 0 0 0 0 0 0 0 0 0 0 0 0 0 0 0 0 0 0 7 28 0 0 24 0 0 0 0 0 0 0 0 0 0 0 0 0 0 0 0 0 0 0 0 0 0 0 0 0 0 0 0 0 74 0 0 0 0 0 0 0 0 0 0 0 0 0 0 0 0 0 0 0 0 0 0 0 0 0 0 0 0 0 0 0 0 0 0 0 0 0 0 0 0 0 0 0 0 0 0 0 0 1633 0 0 0 0 0 0 0 0 0 0 0 0 0 0 0 0 0 0 0 0 0 0 0 0 0 0 0 0 0 0 0 0 0 0 0 0 0 0 0 0 0 0 0 0 0 0 0 0 0 0 0 0 0 0 0 0 0 0 0 0 0 0 0 0 0 0 0 0 0 0 0 0 0 0 0 0 0 0 0 0 0 0 0 0 0 0 9 0 0 0 0 0 0 0 0 0 0 0 0 0 0 0 0 0 0 0 0 24 121 0 0 0 0 0 0 0 0 0 0 0 0 0 0 0 0 0 0 0 0 0 0 0 0 0 0 0 0 0 0 0 0 0 0 0 0 0 0 0 0 0 0 0 0 0 0 0 0 0 0 0 0 0 0 0 0 0 0 0 0 0 0 0 0 0 0 0 0 0 0 0 0 0 0 0 0 0 0 0 0 0 0 0 0 0 0 0 0 0 0 0 0 0 0 0 0 0 0 0 0 0 0 0 0 0 0 0 0 0 0 0 112 0 0 0 0 64 0 0 0 0 0 0 0 0 0 0 0 0 0 0 0 0 0 0 0 0 0 0 0 0 0 0 0 0 0 0 0 0 0 0 0 0 0 0 0 0 0 0 0 0 0 0 0 0 0 0 0 0 0 0 0 18 0 0 0 0 0 0 0 0 0 0 0 0 0 0 0 0 0 0 0 0 0 0 0 0 0 0 0 0 0 0 0 0 0 0 0 0 0 0 0 0 0 0 0 0 0 0 0 0 0 0 0 0 0 0 0 0 48 0 0 0 0 0 0 0 0 0 0 0 0 0 0 0 0 0 0 0 0 0 0 0 0 0 0 0 0 0 0 0 0 0 0 0 0 0 0 0 0 0 0 0 0 0 0 0 0 0 0 0 0 0 0 0 0 0 0 0 0 0 201 0 0 0 0 0 0 0 0 0 0 0 0 0 0 0 0 0 0 0 0 0 0 0 0 0 0 0 0 0 0 0 0 0 0 0 0 0 0 0 0 0 0 1 0 0 0 0 0 24 0 0 0 0 0 0 0 0 0 0 0 0 0 0 0 0 0 0 0 0 0 0 0 0 0 0 0 0 0 0 0 0 0 0 0 0 0 0 0 0 124 0 0 0 0 0 0 0 0 0 0 0 0 0 0 0 88 0 0 0 0 0 0 0 0 0 0 0 0 0 0 0 0 0 0 0 0 0 0 0 0 0 0 0 0 0 0 0 0 0 0 0 0 0 0 1 0 0 0 0 0 0 0 0 0 0 0 0 0 0 0 0 0 0 0 0 0 0 0 0 0 0 0 6 0 0 0 0 0 0 0 0 0 0 0 0 0 0 0 0 0 0 0 0 0 0 0 0 0 0 0 0 0 47 37 0 0 0 0 0 0 0 0 0 0 0 0 0 0 0 0 0 0 0 0 0 0 42 0 0 0 8 0 0 0 0 0 0 0 0 0 0 0 0 0 0 0 0 0 0 0 0 0 0 0 0 0 0 0 0 0 0 0 0 0 0 0 0 0 0 0 0 0 0 0 0 0 0 0 0 0 0 0 0 0 0 0 0 0 0 0 0 0 0 0 0 0 0 0 0 0 0 0 0 0 0 0 0 0 0 0 0 0 0 0 0 20 0 0 0 0 0 264 152 120 0 0 0 0 264 81 192 238 18 130 172 66 0 0 156 60 363 145 40 78 0 0 0 0 0 0 0 0 0 0 0 0 0 0 0 0 0 0 0 0 48 27 0 0 0 0 0 0 0 0 0 0 0 0 132 0 0 288 144 144 132 0 0 0 0 0 0 0 0 0 0 0 0 0 9 0 6 0 90 18 90 9 9 4 21 30 14 15 36 195 158 0 0 
Printing Sanity2
Heartbeat CPU 0 instructions: 60000000 cycles: 36377389 heartbeat IPC: 0.443411 cumulative IPC: 0.443411 (Simulation time: 0 hr 4 min 1 sec) 
*** Reached end of trace for Core: 0 Repeating trace: traces/spec2k17/srv_2.champsimtrace.xz
Heartbeat CPU 0 instructions: 70000000 cycles: 58644581 heartbeat IPC: 0.449091 cumulative IPC: 0.446233 (Simulation time: 0 hr 5 min 2 sec) 
Heartbeat CPU 0 instructions: 80000001 cycles: 80286575 heartbeat IPC: 0.462065 cumulative IPC: 0.451388 (Simulation time: 0 hr 6 min 2 sec) 
Heartbeat CPU 0 instructions: 90000000 cycles: 102771597 heartbeat IPC: 0.44474 cumulative IPC: 0.449708 (Simulation time: 0 hr 7 min 1 sec) 
*** Reached end of trace for Core: 0 Repeating trace: traces/spec2k17/srv_2.champsimtrace.xz
Heartbeat CPU 0 instructions: 100000000 cycles: 124921947 heartbeat IPC: 0.45146 cumulative IPC: 0.450057 (Simulation time: 0 hr 8 min 2 sec) 
Heartbeat CPU 0 instructions: 110000000 cycles: 146630667 heartbeat IPC: 0.460644 cumulative IPC: 0.451788 (Simulation time: 0 hr 9 min 3 sec) 
Heartbeat CPU 0 instructions: 120000001 cycles: 168592165 heartbeat IPC: 0.455342 cumulative IPC: 0.452292 (Simulation time: 0 hr 10 min 5 sec) 
*** Reached end of trace for Core: 0 Repeating trace: traces/spec2k17/srv_2.champsimtrace.xz
Heartbeat CPU 0 instructions: 130000001 cycles: 191359116 heartbeat IPC: 0.439233 cumulative IPC: 0.450617 (Simulation time: 0 hr 11 min 8 sec) 
Heartbeat CPU 0 instructions: 140000000 cycles: 213002985 heartbeat IPC: 0.462025 cumulative IPC: 0.451857 (Simulation time: 0 hr 12 min 8 sec) 
Heartbeat CPU 0 instructions: 150000001 cycles: 235088889 heartbeat IPC: 0.452778 cumulative IPC: 0.451949 (Simulation time: 0 hr 13 min 7 sec) 
*** Reached end of trace for Core: 0 Repeating trace: traces/spec2k17/srv_2.champsimtrace.xz
Heartbeat CPU 0 instructions: 160000002 cycles: 257485453 heartbeat IPC: 0.446497 cumulative IPC: 0.451448 (Simulation time: 0 hr 14 min 9 sec) 
Heartbeat CPU 0 instructions: 170000001 cycles: 279381722 heartbeat IPC: 0.456699 cumulative IPC: 0.451881 (Simulation time: 0 hr 15 min 8 sec) 
Heartbeat CPU 0 instructions: 180000000 cycles: 301408845 heartbeat IPC: 0.453986 cumulative IPC: 0.452042 (Simulation time: 0 hr 16 min 10 sec) 
*** Reached end of trace for Core: 0 Repeating trace: traces/spec2k17/srv_2.champsimtrace.xz
Heartbeat CPU 0 instructions: 190000000 cycles: 323890503 heartbeat IPC: 0.444807 cumulative IPC: 0.451517 (Simulation time: 0 hr 17 min 11 sec) 
Heartbeat CPU 0 instructions: 200000000 cycles: 345717091 heartbeat IPC: 0.458157 cumulative IPC: 0.451954 (Simulation time: 0 hr 18 min 12 sec) 
Heartbeat CPU 0 instructions: 210000000 cycles: 367288919 heartbeat IPC: 0.463568 cumulative IPC: 0.452663 (Simulation time: 0 hr 19 min 12 sec) 
*** Reached end of trace for Core: 0 Repeating trace: traces/spec2k17/srv_2.champsimtrace.xz
Heartbeat CPU 0 instructions: 220000000 cycles: 390033572 heartbeat IPC: 0.439664 cumulative IPC: 0.451877 (Simulation time: 0 hr 20 min 17 sec) 
Heartbeat CPU 0 instructions: 230000002 cycles: 411999606 heartbeat IPC: 0.455248 cumulative IPC: 0.452063 (Simulation time: 0 hr 21 min 20 sec) 
Heartbeat CPU 0 instructions: 240000002 cycles: 433615556 heartbeat IPC: 0.462621 cumulative IPC: 0.452607 (Simulation time: 0 hr 22 min 21 sec) 
*** Reached end of trace for Core: 0 Repeating trace: traces/spec2k17/srv_2.champsimtrace.xz
Heartbeat CPU 0 instructions: 250000002 cycles: 456276432 heartbeat IPC: 0.441289 cumulative IPC: 0.452027 (Simulation time: 0 hr 23 min 25 sec) 
Finished CPU 0 instructions: 200000000 cycles: 442451490 cumulative IPC: 0.452027 (Simulation time: 0 hr 23 min 25 sec) 

ChampSim completed all CPUs

Region of Interest Statistics

CPU 0 cumulative IPC: 0.452027 instructions: 200000000 cycles: 442451490
ITLB TOTAL     ACCESS:   31283698  HIT:   30504953  MISS:     778745  HIT %:    97.5107  MISS %:     2.4893   MPKI: 3.89372
ITLB LOAD TRANSLATION ACCESS:   31283698  HIT:   30504953  MISS:     778745  HIT %:    97.5107  MISS %:     2.4893   MPKI: 3.89372
ITLB PREFETCH  REQUESTED:          0  ISSUED:          0  USEFUL:          0  USELESS:          0
ITLB USEFUL LOAD PREFETCHES:          0 PREFETCH ISSUED TO LOWER LEVEL:          0  ACCURACY: -nan
ITLB TIMELY PREFETCHES:          0 LATE PREFETCHES: 0 DROPPED PREFETCHES: 0
ITLB PREFETCHES SAME FILL-ORIGIN LEVEL: 0 DIFFERENT FILL-ORIGIN LEVEL: 0
ITLB AVERAGE MISS LATENCY: 13.6245 cycles
ITLB RQ	ACCESS:   38368356	FORWARD:          0	MERGED:    6890174	TO_CACHE:   31478182

DTLB TOTAL     ACCESS:   37014728  HIT:   34420554  MISS:    2594174  HIT %:    92.9915  MISS %:    7.00849   MPKI: 12.9709
DTLB LOAD TRANSLATION ACCESS:   37014728  HIT:   34420554  MISS:    2594174  HIT %:    92.9915  MISS %:    7.00849   MPKI: 12.9709
DTLB PREFETCH  REQUESTED:          0  ISSUED:          0  USEFUL:          0  USELESS:          0
DTLB USEFUL LOAD PREFETCHES:          0 PREFETCH ISSUED TO LOWER LEVEL:          0  ACCURACY: -nan
DTLB TIMELY PREFETCHES:          0 LATE PREFETCHES: 0 DROPPED PREFETCHES: 0
DTLB PREFETCHES SAME FILL-ORIGIN LEVEL: 0 DIFFERENT FILL-ORIGIN LEVEL: 0
DTLB AVERAGE MISS LATENCY: 13.6385 cycles
DTLB RQ	ACCESS:   47507537	FORWARD:          0	MERGED:   10350859	TO_CACHE:   37156678

STLB TOTAL     ACCESS:    4355720  HIT:    4021625  MISS:     334095  HIT %:    92.3297  MISS %:    7.67026   MPKI: 1.67047
STLB LOAD TRANSLATION ACCESS:    3372919  HIT:    3039085  MISS:     333834  HIT %:    90.1025  MISS %:    9.89748   MPKI: 1.66917
STLB TRANSLATION FROM L1D PREFETCHER ACCESS:     982801  HIT:     982540  MISS:        261  HIT %:    99.9734  MISS %:  0.0265567   MPKI: 0.001305
STLB PREFETCH  REQUESTED:          0  ISSUED:          0  USEFUL:        261  USELESS:          0
STLB USEFUL LOAD PREFETCHES:        261 PREFETCH ISSUED TO LOWER LEVEL:          0  ACCURACY: inf
STLB TIMELY PREFETCHES:        261 LATE PREFETCHES: 0 DROPPED PREFETCHES: 0
STLB PREFETCHES SAME FILL-ORIGIN LEVEL: 0 DIFFERENT FILL-ORIGIN LEVEL: 0
STLB AVERAGE MISS LATENCY: 46.5672 cycles
STLB RQ	ACCESS:    4652146	FORWARD:          0	MERGED:     296421	TO_CACHE:    4355725

STLB Hit, L1D data hit: 0
STLB Hit, L2C data hit: 0
STLB Hit, LLC data hit: 0
STLB Hit, LLC data miss: 0
STLB STLB hints to L2: 0
L1D TOTAL     ACCESS:   48242762  HIT:   45778861  MISS:    2463901  HIT %:    94.8927  MISS %:     5.1073   MPKI: 12.3195
L1D LOAD      ACCESS:   27448420  HIT:   25330913  MISS:    2117507  HIT %:    92.2855  MISS %:     7.7145   MPKI: 10.5875
L1D RFO       ACCESS:   19515573  HIT:   19178755  MISS:     336818  HIT %:    98.2741  MISS %:    1.72589   MPKI: 1.68409
L1D PREFETCH  ACCESS:    1278769  HIT:    1269193  MISS:       9576  HIT %:    99.2512  MISS %:   0.748845   MPKI: 0.04788
AGUS PREFETCH L1 MISS: 0
L1D PREFETCH  REQUESTED:    2596600  ISSUED:    2596600  USEFUL:       1565  USELESS:       8011
L1D USEFUL LOAD PREFETCHES:       1565 PREFETCH ISSUED TO LOWER LEVEL:       9576  ACCURACY: 16.3429
L1D TIMELY PREFETCHES:       1565 LATE PREFETCHES: 0 DROPPED PREFETCHES: 0
L1D PREFETCHES SAME FILL-ORIGIN LEVEL: 9576 DIFFERENT FILL-ORIGIN LEVEL: 0
L1D AVERAGE MISS LATENCY: 45.3007 cycles
L1D RQ	ACCESS:   42106224	FORWARD:          0	MERGED:   14269486	TO_CACHE:   27586491
L1D WQ	ACCESS:   20224316	FORWARD:     250247	MERGED:     303270	TO_CACHE:   19921046
L1D PQ	ACCESS:    1317373	FORWARD:          0	MERGED:      38146	TO_CACHE:    1279227

L1D UNIQUE REGIONS ACCESSED: 0
L1D REGIONS CONFLICTS: 0
L1D Cross Page Prefetch Requests: 175364
L1D Same Page Prefetch Requests: 1142009
L1D ROI Sum of L1D PQ occupancy: 15870362
L1D PREFETCHES PUSHED FROM L2C: 0
L1I TOTAL     ACCESS:   36558204  HIT:   31409914  MISS:    5148290  HIT %:    85.9176  MISS %:    14.0824   MPKI: 25.7415
L1I LOAD      ACCESS:   36558204  HIT:   31409914  MISS:    5148290  HIT %:    85.9176  MISS %:    14.0824   MPKI: 25.7415
L1I PREFETCH  REQUESTED:          0  ISSUED:          0  USEFUL:          0  USELESS:          0
L1I USEFUL LOAD PREFETCHES:          0 PREFETCH ISSUED TO LOWER LEVEL:          0  ACCURACY: -nan
L1I TIMELY PREFETCHES:          0 LATE PREFETCHES: 0 DROPPED PREFETCHES: 0
L1I PREFETCHES SAME FILL-ORIGIN LEVEL: 0 DIFFERENT FILL-ORIGIN LEVEL: 0
L1I AVERAGE MISS LATENCY: 25.2661 cycles
L1I RQ	ACCESS:   57175312	FORWARD:          0	MERGED:   18806956	TO_CACHE:   38368356

BTB TOTAL     ACCESS:   22017287  HIT:   17637200  MISS:    4380087  HIT %:    80.1061  MISS %:    19.8939   MPKI: 21.9004
BTB BRANCH_DIRECT_JUMP	ACCESS:    1737856  HIT:    1493758  MISS:     244098
BTB BRANCH_INDIRECT	ACCESS:    9415713  HIT:    7279334  MISS:    2136379
BTB BRANCH_CONDITIONAL	ACCESS:    4567442  HIT:    4164173  MISS:     403269
BTB BRANCH_DIRECT_CALL	ACCESS:    2474421  HIT:    1994045  MISS:     480376
BTB BRANCH_INDIRECT_CALL	ACCESS:     673221  HIT:     632799  MISS:      40422
BTB BRANCH_RETURN	ACCESS:    3148634  HIT:    2073091  MISS:    1075543
BTB BRANCH_OTHER ACCESS:          0  HIT:          0  MISS:          0

L2C TOTAL     ACCESS:    9063586  HIT:    5977191  MISS:    3086395  HIT %:    65.9473  MISS %:    34.0527   MPKI: 15.432
L2C LOAD      ACCESS:    7265558  HIT:    4557761  MISS:    2707797  HIT %:    62.7311  MISS %:    37.2689   MPKI: 13.539
L2C DATA LOAD MPKI: 4.55087
L2C INSTRUCTION LOAD MPKI: 8.98811
L2C RFO       ACCESS:     336818  HIT:     194356  MISS:     142462  HIT %:    57.7036  MISS %:    42.2964   MPKI: 0.71231
L2C PREFETCH  ACCESS:       9576  HIT:       5267  MISS:       4309  HIT %:    55.0021  MISS %:    44.9979   MPKI: 0.021545
AGUS PREFETCH L1 MISS: 0
L2C DATA PREFETCH MPKI: 0.021545
L2C INSTRUCTION PREFETCH MPKI: 0
L2C WRITEBACK ACCESS:    1010431  HIT:     957456  MISS:      52975  HIT %:    94.7572  MISS %:    5.24281   MPKI: 0.264875
L2C LOAD TRANSLATION ACCESS:     440930  HIT:     262084  MISS:     178846  HIT %:    59.4389  MISS %:    40.5611   MPKI: 0.89423
L2C TRANSLATION FROM L1D PREFETCHER ACCESS:        273  HIT:        267  MISS:          6  HIT %:    97.8022  MISS %:     2.1978   MPKI: 3e-05
L2C PREFETCH  REQUESTED:          0  ISSUED:          0  USEFUL:        239  USELESS:       4070
L2C USEFUL LOAD PREFETCHES:        239 PREFETCH ISSUED TO LOWER LEVEL:       4309  ACCURACY: 5.54653
L2C TIMELY PREFETCHES:        239 LATE PREFETCHES: 0 DROPPED PREFETCHES: 0
L2C PREFETCHES SAME FILL-ORIGIN LEVEL: 0 DIFFERENT FILL-ORIGIN LEVEL: 0
L2C AVERAGE MISS LATENCY: 45.2687 cycles
L2C RQ	ACCESS:    8043818	FORWARD:          0	MERGED:          0	TO_CACHE:    8043579
L2C WQ	ACCESS:    1010431	FORWARD:        239	MERGED:          0	TO_CACHE:    1010431
L2C PQ	ACCESS:       9576	FORWARD:          0	MERGED:          0	TO_CACHE:       9576

L2C Instructions Evicting Data 626456
L2C Translations Evicting Data 68763
L2C Data Evicting Data 395911
L2C Instructions Evicting Instructions 1072212
L2C Translations Evicting Instructions 98309
L2C Data Evicting Instructions 595439
L2C Instructions Evicting Translations 98954
L2C Translations Evicting Translations 11780
L2C Data Evicting Translations 65596
L2C Dense regions hint from L2: 0
PSCL5 TOTAL     ACCESS:     334095  HIT:     334095  MISS:          0  HIT %:        100  MISS %:          0   MPKI: 0
PSCL5 LOAD TRANSLATION ACCESS:     333834  HIT:     333834  MISS:          0  HIT %:        100  MISS %:          0   MPKI: 0
PSCL5 TRANSLATION FROM L1D PREFETCHER ACCESS:        261  HIT:        261  MISS:          0  HIT %:        100  MISS %:          0   MPKI: 0
PSCL5 PREFETCH  REQUESTED:          0  ISSUED:          0  USEFUL:          0  USELESS:          0
PSCL5 USEFUL LOAD PREFETCHES:          0 PREFETCH ISSUED TO LOWER LEVEL:          0  ACCURACY: -nan
PSCL5 TIMELY PREFETCHES:          0 LATE PREFETCHES: 0 DROPPED PREFETCHES: 0
PSCL5 PREFETCHES SAME FILL-ORIGIN LEVEL: 0 DIFFERENT FILL-ORIGIN LEVEL: 0

PSCL4 TOTAL     ACCESS:     315333  HIT:     314932  MISS:        401  HIT %:    99.8728  MISS %:   0.127167   MPKI: 0.002005
PSCL4 LOAD TRANSLATION ACCESS:     315072  HIT:     314671  MISS:        401  HIT %:    99.8727  MISS %:   0.127272   MPKI: 0.002005
PSCL4 TRANSLATION FROM L1D PREFETCHER ACCESS:        261  HIT:        261  MISS:          0  HIT %:        100  MISS %:          0   MPKI: 0
PSCL4 PREFETCH  REQUESTED:          0  ISSUED:          0  USEFUL:          0  USELESS:          0
PSCL4 USEFUL LOAD PREFETCHES:          0 PREFETCH ISSUED TO LOWER LEVEL:          0  ACCURACY: -nan
PSCL4 TIMELY PREFETCHES:          0 LATE PREFETCHES: 0 DROPPED PREFETCHES: 0
PSCL4 PREFETCHES SAME FILL-ORIGIN LEVEL: 0 DIFFERENT FILL-ORIGIN LEVEL: 0

PSCL3 TOTAL     ACCESS:     333171  HIT:     332367  MISS:        804  HIT %:    99.7587  MISS %:   0.241318   MPKI: 0.00402
PSCL3 LOAD TRANSLATION ACCESS:     332910  HIT:     332106  MISS:        804  HIT %:    99.7585  MISS %:   0.241507   MPKI: 0.00402
PSCL3 TRANSLATION FROM L1D PREFETCHER ACCESS:        261  HIT:        261  MISS:          0  HIT %:        100  MISS %:          0   MPKI: 0
PSCL3 PREFETCH  REQUESTED:          0  ISSUED:          0  USEFUL:          0  USELESS:          0
PSCL3 USEFUL LOAD PREFETCHES:          0 PREFETCH ISSUED TO LOWER LEVEL:          0  ACCURACY: -nan
PSCL3 TIMELY PREFETCHES:          0 LATE PREFETCHES: 0 DROPPED PREFETCHES: 0
PSCL3 PREFETCHES SAME FILL-ORIGIN LEVEL: 0 DIFFERENT FILL-ORIGIN LEVEL: 0

PSCL2 TOTAL     ACCESS:     334095  HIT:     228192  MISS:     105903  HIT %:    68.3015  MISS %:    31.6985   MPKI: 0.529515
PSCL2 LOAD TRANSLATION ACCESS:     333846  HIT:     227943  MISS:     105903  HIT %:    68.2779  MISS %:    31.7221   MPKI: 0.529515
PSCL2 TRANSLATION FROM L1D PREFETCHER ACCESS:        249  HIT:        249  MISS:          0  HIT %:        100  MISS %:          0   MPKI: 0
PSCL2 PREFETCH  REQUESTED:          0  ISSUED:          0  USEFUL:          0  USELESS:          0
PSCL2 USEFUL LOAD PREFETCHES:          0 PREFETCH ISSUED TO LOWER LEVEL:          0  ACCURACY: -nan
PSCL2 TIMELY PREFETCHES:          0 LATE PREFETCHES: 0 DROPPED PREFETCHES: 0
PSCL2 PREFETCHES SAME FILL-ORIGIN LEVEL: 0 DIFFERENT FILL-ORIGIN LEVEL: 0

LLC TOTAL     ACCESS:    3446739  HIT:    3120361  MISS:     326378  HIT %:    90.5308  MISS %:    9.46918   MPKI: 1.63189
LLC LOAD      ACCESS:    2707791  HIT:    2444960  MISS:     262831  HIT %:    90.2935  MISS %:    9.70647   MPKI: 1.31415
LLC RFO       ACCESS:     142455  HIT:      93695  MISS:      48760  HIT %:    65.7716  MISS %:    34.2284   MPKI: 0.2438
LLC PREFETCH  ACCESS:       4309  HIT:       4158  MISS:        151  HIT %:    96.4957  MISS %:    3.50429   MPKI: 0.000755
AGUS PREFETCH L1 MISS: 0
LLC WRITEBACK ACCESS:     413332  HIT:     411219  MISS:       2113  HIT %:    99.4888  MISS %:   0.511211   MPKI: 0.010565
LLC LOAD TRANSLATION ACCESS:     178846  HIT:     166323  MISS:      12523  HIT %:    92.9979  MISS %:    7.00211   MPKI: 0.062615
LLC TRANSLATION FROM L1D PREFETCHER ACCESS:          6  HIT:          6  MISS:          0  HIT %:        100  MISS %:          0   MPKI: 0
LLC PREFETCH  REQUESTED:          0  ISSUED:          0  USEFUL:          1  USELESS:        126
LLC USEFUL LOAD PREFETCHES:          1 PREFETCH ISSUED TO LOWER LEVEL:        151  ACCURACY: 0.662252
LLC TIMELY PREFETCHES:          1 LATE PREFETCHES: 0 DROPPED PREFETCHES: 0
LLC PREFETCHES SAME FILL-ORIGIN LEVEL: 0 DIFFERENT FILL-ORIGIN LEVEL: 0
LLC AVERAGE MISS LATENCY: 149.255 cycles
LLC RQ	ACCESS:    3029111	FORWARD:          0	MERGED:          0	TO_CACHE:    3029098
LLC WQ	ACCESS:     413332	FORWARD:         13	MERGED:          0	TO_CACHE:     413332
LLC PQ	ACCESS:       4309	FORWARD:          0	MERGED:          0	TO_CACHE:       4309

LLC Dense regions hint to LLC: 0

RAW hits: 2766968
Loads Generated: 44873193
Loads sent to L1D: 42106224
Stores Generated: 20224315
Stores sent to L1D: 20224316
Major fault: 0 Minor fault: 6527
Allocated PAGES: 6527
ucb ended
-----------------------------------------------------------------------------------------------------------------------------------------------------------------------------------------------------
Offsets elements: 640 -8088307 8087668 -8087643 4397632692683 6885033 1589724 -8474758 -4397629371551 165063 -3486216 4397639891543 -4397636570392 4397637846311 -4397641167479 12 -12 1 9701 -13 -9689 4397641167479 -1 9688 13 4397632683013 8474764 -8474763 -4397632692716 4397632692715 8474763 -4397641167468 4397632692707 -4397629371549 4397629371549 -4397632692705 4397632692706 -4397629371550 -510570 130859326 4397501624010 5873545 -8474762 -3321157 4397639938680 -4397637135493 4397629889520 -4397629824189 -57931 130859328 4397501624061 5873492 4397632683026 -8474764 2522189 -4397635214860 4397632692671 -4397632692715 -9662 9662 -9703 4397641167478 -4397635214859 4397632692670 6869242 -6869241 2522187 4397639561912 -4397636240789 4397629371550 6869239 -6869239 -6869240 2 8474760 -4397641167467 31 3521074 -199949 -77680 23642 -15390 4397629440979 29 3321125 -3321154 2848449 4397629844254 -4397632692675 -29 4397632692703 8474762 -4397633079797 4397624604397 -4397624605036 4397631490073 -6885037 -4397632692704 4397632692676 -4397637846311 4397629371553 8474758 -8474757 -4397629206488 3321149 4397639891548 -4397639891560 14 -4397632692718 4397632683012 9702 -14 4397632692716 -4397632692706 3321155 4397629371551 -4397632692707 2810586 4397638356881 -1228788 -4397506268767 4397499022794 -4397629371552 -3321155 2803187 4397632490736 -4397632483336 57931 4397638298950 -4397507497553 -4397635293987 4397641157776 -4397641157790 -4397635214856 4397632692668 -4397632692672 -43 -9660 9660 -9705 4397632692714 5952575 -4397641167431 4397632692667 -5952575 3321118 4397629371552 6869240 -4397641167433 -34 3521105 -199951 -77679 23643 -24600 4397629450190 -4397629450190 -3242515 32 4397641167433 -4397641167465 3321152 4766515 -8087635 2848417 5239219 -4766516 4397637846313 -4397629844257 5239857 4397624604401 -4397639577741 3 3486216 4397636405327 -4397639891548 3321173 -3321173 -4397641157774 -16 4397632683028 -4397632692701 4397632692701 -4397629371544 -3321161 -4397637846306 130348751 -133669913 -7245973 2601216 -4397632490736 7400 130801397 4397507497553 -5873492 9704 4397641157774 -4397635214853 4397632692665 16 -9706 -4397641167428 4397632692664 -4397635214852 3321121 4397629371545 3243474 277631 -253989 -24601 4397629450191 -4397629450191 -3242514 35 -35 3321159 -4397629844255 -2848449 4397641167430 -4397638319015 5239218 639 -640 4397624605037 4397632692708 -4397632692673 4397632692672 6885034 -4397636256582 4397629371548 4397641167465 4397627127222 4397639561905 -4397639561907 8087631 4397627127223 -4397635214851 -3 8088271 4397631473636 -4398025751488 386189581 4397635214854 -4397635214850 4397632692662 -4397632692666 -4397635214854 4 -4 4397624604395 -1605522 -4397639561905 -2 4397632692666 -4397632692664 2883452 -2883452 4397624604396 -4397624604396 6869241 -4397631473636 -4398025751436 4398018882197 8474761 -8474761 -394277212 394276700 -394280182 394280183 -4829846 4829846 4397627127740 -4397627127741 -4829845 -470721 4397636780797 -6874683 -8474760 -8474759 4397632366441 -4397632366441 -2848447 39 2848409 4397632366440 -4397635214849 4397639561902 -6869237 -4397632692669 -33 133709817 -133709784 33 133709784 -133709817 3321151 -3321151 4397632692699 -4397632692667 -28 30 -133709814 -30 4397632692697 8474759 -3321118 -25 27 -133709811 -26 4397632692694 -4397629371554 -3321114 -21 23 -133709807 -23 4397632692690 -4397629371547 -3321121 -20 20 -133709804 4397632692687 -4397629371545 -3321123 -15 17 -133709801 -17 4397632692684 -3321116 -133709798 4397632692681 -3321119 -8 133709794 -133709794 10 -10 3321115 -5 7 -133709791 -7 4397632692674 -4397629371553 -3321115 -133709788 2522185 -4397631893731 -3321159 41 2848408 4397636713494 -6869236 -8474756 8474756 -4397641167426 -37 4397632692709 8474754 -8474754 -8474753 6869231 -4397639561944 4397639561944 -6869231 8474753 -4397632692711 133717197 -133717197 133717202 5 4397499599033 -4397633316244 133687406 4397499005267 -4397632692710 133710069 4397499614240 -4397633324258 -51 51 4397641167426 -8474752 8474752 -8474751 8474750 -8474750 6869227 -4397639561942 -4397632688803 -3911 -53 53 4397499603628 -4397633320838 4397641167466 3413041 -602452 4397632404306 -4397635214848 -4397641167464 4397641167464 4397632692712 -4397632692712 38 -40 -133717202 -4397507450259 -133717219 4397633320847 -4397633320846 4397635214899 -4397635214899 -152 4397641167590 -4397635214847 4397639561899 -6869229 6869230 -4397639561995 -58 4397632692839 -4397632692839 3486345 -389673962 389673962 4397629206493 -4397629882111 -2810562 2774724 -2774724 -6869230 -4397632692838 -4397632692723 -116 -386187617 389508899 -510561 510561 -546393 4397629917950 -4398018880456 386187781 4397632692675 -4397629822892 -2869801 3321138 130388666 -130388663 4397629371554 -2869811 3321148 -130388668 4397629371556 -4397632692674 -2869814 -130388666 -4397641167459 -133709832 3321166 -510573 130859319 4397499022811 -4397629882130 -4397507497555 -2601206 -4397632692709 34 -4397632692722 4397632692722 4397641167474 -4397641167590 389508897 4397629371559 388998338 -2810557 2774725 -2774727 2869783 -2869783 -3321136 133709804 3321146 130388668 -4397641167474 18 4397632692705 -4397498982891 4397637846310 -2810544 133669900 4397501624017 -4397635293880 4397639561903 8474751 4397632692723 116 386187617 3321112 2810559 -2810559 2774727 95056 3321132 130388672 3321142 -2869808 3321139 4397629371560 -4397498982888 -130388672 4397637846314 21 133709811 -4397637846314 -3321111 -27 2810571 133669870 4397505892040 2601206 -386187618 4398018880456 389508900 2810557 130388665 -4397498982889 4397629371561 -2869804 -130388665 25 4397632692698 4397637846307 -24 133669894 4398027355207 386187618 164 3321141 130388663 -4397641167446 4397637846305 -2810565 133669891 4397632692838 389508895 3321134 130388670 -2869791 3321124 -130388669 4397629371557 -2869798 3321131 -130388670 4397629371558 133709801 -133669880 4397635293880 4268023 389508898 3321137 130388667 3321127 -130388667 -2869795 4397629371555 4397632692689 4397637846309 133669884 -386187733 163 -3321117 3321135 130388669 4397632692685 -11 133669881 4397632692673 -4397639561952 389508894 4397629371562 3321133 130388671 3321123 -2869788 3321120 -130388671 -4397632692676 4397641167428 -4397632692682 133709791 133669878 389508901 3321140 130388664 3321122 -3321130 3321130 -2869785 -130388664 44 4397632692679 4397637846306 133669874 -4397639562068 4397499599030 -4398019505319 386189079 -4397636724758 94696 -2931882 133717205 4397499550708 -4398019455894 386187981 9705 4397632683033 8474757 -8474755 8474755 -6869232 -4397641167466 4397632692711 3226580 4397637940884 4397641167477 -8474749 -4397632692727 4397632692727 133724761 -133724761 -386187730 389024917 -2931895 4397641157773 4397632692726 -4397632692728 42 3226590 -3226591 4397639561950 -4397639561953 50 -49 -67 67 2804363 130833478 4397501577057 -4397635214845 -52 4397639561951 -4397639561950 -66 15 4397641167521 -4397641167525 4397632692725 -4397632692724 8474747 4397639561898 -6869225 -4397629917961 4397636787186 6869225 -4397632692730 -8474747 -4397632692729 4397632692731 -4397632692719 8474746 -5952569 -4397635210988 3282972 -3282968 4397639947349 -4397506282766 -130775390 393781 -438400 -110584 -11883 4397637225243 -4397637144292 -397 24 4397637144664 -4397637144293 -933 103091 4397629783592 8474743 -2522174 7251622 -4397636657464 -3282972 133664587 -130898609 517000 4397636657458 -4397637206442 4044 -15927 -2726228 4397632692931 6869221 382402 -7251622 -4397632692681 14776579 -14772713 3358147 4397636582290 -4729449 -4397632445010 516994 55991 -55985 4397636657460 -4397637206444 15927 4397636841249 -4397636841249 61751 4397637156576 -4397637202401 488212 15135 -15135 15137 -15137 4397636699053 -4397625167725 -11531326 -398537 -40185 4397637137748 -4397637138310 40722 4397637097588 -4397637138309 4397632305762 4397632692677 -4397639558035 4397639558035 -6869221 -4397632692679 14779538 -1083 -11292431 -748213 130983338 -519908819 4398018880347 -4397629446709 165376 148651 10041 4397631644809 -4397635214844 6869222 -4397636000275 -3571250 4397639571507 -4397635991844 -8413 4397629131054 -8474741 8474741 -4397629904880 4397629904881 8474740 -8474739 8474739 -4397641163551 4397632688812 -8474738 6869224 -4397639558038 2712598 71334 4397629904882 -4397629976217 71337 -71337 4397629904880 -4397629435413 -469547 442366 -442300 442325 -513638 71220 4397629904987 -4397629462569 -513637 513637 -513636 71224 8 442405 4397629462569 -4397629976204 540804 -469551 89 442286 -442299 4397629904893 6875578 341834 -7217412 8474738 4397636652824 -4397636652824 -469543 4397629904956 -4397629904956 469543 -27181 442418 71223 -71224 -442405 -71230 513636 -442400 -71234 513635 -442395 -71253 4397629976217 7217411 -4397637122291 469467 -389451867 389424686 -498573 56274 161863 -218137 218137 -389144280 123 4398027206933 145511 312 22337 -4976 -8482933 2522165 -4397631957576 -3257268 3230087 4397629462592 3257239 4397636628998 -4397639895853 133647398 -133637779 133637783 4397502768709 -4397636416115 9619 4397632692678 8474742 -4397641177038 4397641177038 -4397641177039 4397635224465 4397639561897 -6869220 6869220 -4397639571518 4397639571500 -4347029 -4397631928013 4397629405842 -4398027362017 4398021409451 5792496 82 4914 -4510 -607 5419 -5797804 -2522168 8314823 4240 -5796888 5796880 -4397637724896 4397629405843 2522173 -5796873 5792620 -8148127 8154653 -8154654 2355509 5826140 -33411 1234 -1204 -8314875 8474239 -5952134 5521821 -8043993 8319752 17672 -17361 -8487916 8314675 -5797800 270968 -8314896 8348256 -8348325 8348326 -5826151 275679 -4729 -8314944 8348323 -8348322 -8348256 -8348255 -72 8348327 288223780698699478 -2200618735796 2200618735796 -288223780707047801 288223780707048051 -2200618733409 2200618733406 -2200618733429 2200618733421 -239 250 -49956 49706 -49727 49727 244 -2200618648859 3626377 2200615022238 -288223780698699479 288223780698649774 49944 -241 -49739 -2200614972499 -2200615022238 2200615022480 11126739 -11126738 6 -11126980 236 -2200618648931 2200629775941 -2200629775941 2200618648937 -242 -49717 11176705 -11126739 11126740 513280 -513280 517120 -517120 98048 -721152 619008 5633 -1536 1536 -5632 -2305 2304 -619008 721152 1280 -1280 419072 10609620 -11133139 6400 -11126743 11126742 -11126742 -243 -49740 49740 26 49713 -2200618648695 -2200629775926 2200629775938 -11127022 11126595 -11126595 11126976 -11176986 11176986 -2200629775932 1642 2200618647276 11127012 -11127011 -2200618648850 2200618598886 11176974 -11176974 -2200618683539 2200618683541 62240 11114747 -11176984 62237 -62238 62238 -62237 568616 -568615 -57138 107088 -49968 11114744 -11176985 62234 -62234 62236 -62236 62235 62239 -62212 -31 11176921 -11127212 -49738 -2200618661195 2200629775721 -11114523 11114745 -11235926 81254 -81253 121179 -121178 121176 -39907 11154622 -11154624 11154654 -11154621 27640 -27641 11154621 11154619 -11126979 12266 22331 11154620 -11154655 11154618 -11154618 -2200629761278 2200614732334 3874289 -11126977 -49976 11176952 -2200629860490 2200629860491 -49975 11176953 -11154622 -11154623 11126978 -27640 39906 -12267 518646 -518644 518643 -568616 49972 518644 -506378 506378 -312 -506376 -10608365 -506382 -2200619252157 2200619252157 2200619252155 -506380 -12268 12270 506376 -518645 11127013 -11127012 -49974 11127213 -11176932 -2200618598895 2200629775860 568628 10608358 -10608358 518889 10607897 -10607910 -4060 -514580 -236 518876 564556 -514816 518913 -4097 518922 -518686 -2200618618561 2200619137217 4095 -3849 -247 10612430 10612396 -10612148 10612184 -10612182 -248 249 -250 4098 -4105 254 -288223780699097607 -9318524 -4397629119287 641342 -58012 -3315006 4397631850961 -4397629105267 -9924 9925 -9925 485380 -475456 510196 4397628604996 -4397629115192 9923 4397637162132 -4397636979551 4397629166864 -4397628833214 -419010 -107141 4397636826379 -7711190 -4397629115189 4397629359365 -4397629349441 4397629890782 -4397629890781 35835 -35835 4397629069432 -4397629069432 -35836 4397633074302 5332144 -9301111 -74 288223780708398208 -2200619250622 2200619250622 4084 -4084 -574296 3684 -21397 563866 24306 -24306 -343 24645 -245 -24400 -24646 24649 -29581 -469994 -2200618724350 2200618724353 -12300255 12805093 -12805093 -2200606423897 2200606423897 -2200606363562 2200619168653 -5268 5273 -2200619159244 2200619159264 -2200619159434 2200619159457 -5273 -29576 4934 -4934 29579 -24643 -24644 24646 -24305 24308 -288223780708398388 244174 -4398018296123 4398018296133 8911388 -9155560 8056866 -7812687 -244178 -4397628922686 -182579 516229 -516229 4397629105265 -4397629126948 118902 4397628971305 -4397629078446 4397629115189 -9923 9924 -21683 21682 4397629068525 8093606 -4397637120302 474373 -319436 572227 11283299 -25754 -12026540 -21681 497138 4397628593069 -4397628334335 11292349 -11292348 4397628371074 9310332 -9310331 -4397617078727 475457 4397628629811 -4397628629811 60399 4397636280642 -7711232 -9310330 -4397629105266 4397629105266 -4397628629813 -4397629115193 4397629115193 -4397629105269 4397629105269 9310329 -9310327 -4397629119290 4089 4397629115201 -4397629119291 4397629119290 9300847 -145511 168161 -17360 -9301161 489476 11490684 -11292351 11292351 -11292350 130239175 -118946827 -11292347 11293508 -1160 623 -12062521 4397629384805 -4397629384805 551590 130400392 -130926537 604048 202381 -829542 4397629138283 -4398018050396 4398018294578 -4397628833215 -389461279 519861677 -130367939 -562725 530272 32451 45452 -192765 -14267 4397628515773 -4397628478122 -50993 -590183 4397629119296 -4398018050263 388930966 -18984 623147 894 37660 470 -2347 -35791 4397628514239 -4397628534907 59363 -626060 566697 4397628779093 -4397628719763 -32 -643685 584387 -54122 -551590 130951988 -130400392 -526145 202382 4397628308738 -4397629138279 609169 4397636240428 -4397636246224 4397636246224 -4397636812926 4397629101610 9310338 -9310338 -4397628478447 -389571768 389571760 -389571699 389571700 4397628722640 -4397628722640 -23136 4397637811929 -9310339 -4397628515949 4397636227292 1598996 -4397629138280 624042 4397628514240 9310336 -9310335 9310335 -4398027360731 389535257 -389535257 389555339 49158 -49159 -19196 4397628514254 9310334 -9310333 9310333 -4397637839450 4397628529117 -4397617078728 4397617078728 -4397628371076 -158042 158043 -572499 4397629345789 -4397632095130 2749341 4397638411948 -4398027360421 92 4398027360329 -9310334 7704823 -4397636806438 4397629101613 -4397631850956 3321842 4397636240427 -7711313 -4397628371072 -3479885 14762473 -11282588 11282588 -11282589 11282590 4397628371071 -4397628371071 -4397617088482 -11282590 -389678860 4398018294114 -333650 -85360 -4397636826379 4397629115183 -4397629115183 -4397628615250 4397629156591 -4397617874002 -389678787 4398022018906 -4398022018906 4398018294034 8911378 -8911388 -244177 -400961450 389678861 4397628371069 -4397628524958 -3325997 3294456 4397628556499 -4398018049844 4398018294027 3724869 5182434 -4398027201238 4398027205324 -9155574 -4397617078100 4397617078099 9155575 3969049 5341110 -9310083 -78 288223780708398212 -2200619250617 2200619250617 -21395 88596 499577 -499576 499576 499327 -499328 499578 -12799824 -2200606361319 2200618661566 -12190390 12689964 -12799818 12300243 -601462 1101036 -2200618724351 2200618724352 -12300249 11697852 -11697853 12799830 2200619223927 -499574 499572 -12799828 12799826 -2200619223722 2200606423896 -2200619159245 2200619159248 -5511 5511 -2200619149172 2200619149172 241 5269 22 13737 -13736 -5290 19026 -19025 -468053 468050 5287 -2200619169080 2200619163785 5290 13735 -13757 13755 -521183 502153 19028 -19268 19270 -13755 2200619159246 -5272 19030 -487052 468022 -19029 5292 -5269 -9 -2200619168542 2200619168545 -5294 5270 5512 2200619153975 5291 2200619149413 -499575 -12190391 -109862 109862 12689966 -12799819 499575 -1101036 1101039 -249 4088 -3837 -499578 -4398018049842 4398018294021 -4397628371069 14762474 4397617088481 -4397617088481 4397617088482 -389678861 -244183 -4397628589031 11282589 -4397617088483 -9310332 4397617078729 -4397617077566 -1161 1161 4397617321745 -4397617321746 -11293509 -748210 12041719 118944332 4397498046329 86903 -4397617077564 118944336 11 4397498046291 -4397616990646 -1170 1170 4397617321736 -4397617321737 -11293519 11293519 -12041730 12039208 118948306 4397497401486 974453 -4397628773297 -59918 4397636650665 -4397506195599 -54668 -130306424 -93968 93968 -16065 -219429 12414 37641 4397628478113 -4397617080071 -11398043 4397636211793 -7733679 -4397628529111 50997 11400563 -11451560 -50997 4397628529109 -4397617080069 -11449041 4397636585167 -6007413 -4397631114598 435685 101157 4397636585168 -4397630573614 -397709 4397629252218 -4397632095129 3347526 4397636208252 -4397505835855 4397505835855 -4397636770782 536843 4397630577755 -4397630577755 -4397631127802 550047 -553258 553259 -4397630577756 4397628773291 -4397632095128 3321838 4397636233939 -4397639555780 3321840 4397636585169 -4397636498838 -86332 4397628529107 -4397617077546 4397625133609 -4397625134778 -123991 11406579 10385 -621 4397617078713 -4397617078712 4397617078712 -4397617078713 9310343 -4397626389057 -1786 4397617080500 244184 4397632095128 -4397632095127 4397639555776 -7704833 7704833 -7704832 7704832 -4397628478110 -56933 4397636246352 -7711308 9310341 -4397626387889 4397617077549 -4397628478113 4397628478112 -4397628529109 11449040 4397626390410 -9310340 9310340 -11449040 4397636590748 -4397636504416 -86331 4397628529111 -11457496 11457494 4397626387890 -4397626387892 -1168 1167 4397617321739 -4397617321739 -11293517 11293517 -12041728 49995 130935564 4397498042429 -4398017958410 4398018293877 -4397628739241 -93974 130400398 12413 37642 4397628478108 -4397637788451 -591172 -33103 4397629102382 -4397629069281 -2781666 133717165 4397498133782 -4397617077550 -400961163 400971548 -11416964 4397637805400 -4397626388436 -400970927 400970928 -1787 -11414557 -3355889 4397631850946 -4397628478106 4397636246351 -7711310 -4397641161289 4397502672286 -4538505 -9310342 -4397628478109 11400559 -11400558 11400558 -11457492 11457491 4397626387893 -4397626387894 -1165 1165 4397617321741 -4397617321741 -11293515 -748211 12041725 -400972137 -574228 480254 130306424 -130322489 4397637619077 -4397638379622 541116 -541115 130935441 -130381917 130344280 -130935451 -2781668 2748565 130968600 -45 45 4397498042504 91275 8072137 -4397639923081 4397639923080 -4397639923080 3355891 -3355891 2768582 587309 3321839 -578412 -2743428 -3321839 -3321840 3321841 -4397633899596 -4397632095126 2749337 4397636806438 -4397632095125 4397639555774 -4397639555778 4397631850940 9310348 -9066153 4397636661154 -4397636583251 -806441 806442 4397628552924 -4397628612244 -220971 -604061 4397628308730 -4397628368050 31997 -3514887 3514888 4397628336052 4397628368048 -4397631850938 4397631850938 -3514888 4397630384705 -4397630357207 -3542386 -4397633899593 4397633899593 -4398020098213 4398018049557 9310350 -9310349 -4397629052852 -2798086 4397631850939 -4397638363201 4397629297042 -244188 -4397628336052 -3514885 3514885 27498 4397628552742 -4397632095123 3542381 -3542385 3542385 4397636013390 -7704837 -4397631850943 4397631850943 244188 -4397632095131 4397639923074 -8072139 -4398020098136 4398018049479 -4397629065942 -3220682 2845889 475950 -4398020098135 389126812 492900 -389534352 389536223 130382478 -130382478 18189 -18188 4397628513256 -4397628495067 -18189 -4397628495066 -389554414 389554412 -389554412 4398018049480 4397628495066 -4397631850941 -1804465 -4397632095122 4397632095122 4397639555770 -7704841 -4397631850939 4397630577756 -4397633899597 4397632095130 -3321830 3321831 4397632095124 -4397632095120 3321832 -3321833 133716981 -130395148 130395148 -130395147 4397628529098 8063211 -7819009 8906080 -8906172 -244196 9150165 607 4510 302 -9155583 9150483 4100 -4397641005510 4397641001284 1868 -4397507372592 4397507370929 -7101900 -1804466 -244153 1241009 -1241008 -44 9150285 244195 -4398018293612 4398018293602 -244194 9155582 -9155581 244194 -4397632095124 4397639555769 -7704842 9310352 -4397641161283 4397639555773 -4398027359829 -4397628495068 -389554411 4397628495067 -4397631850940 389554413 -133716988 -4397632095119 4397639555768 -7460649 -7704838 -1605510 -4397636787198 4397629082361 7704837 -4397631850936 133704774 -133704779 4397639555779 -4397505851000 4397498146162 4397625149687 -4397625150852 -11416341 123991 4397617088472 -4397617078087 4397617078709 -4397617078709 4397626389057 -4397626389056 4397617080496 -4397628478102 4397628478103 -4397628535043 4397636246357 9310346 4397631850944 -4397498133779 4397498133778 -4397637788450 11400556 4397621616056 4771838 -4397637845390 11457495 4397617321743 -6 -4397632095118 3236877 -526555 4397629384802 -4398018293559 389460344 -374992 130775390 77903 -497520 4397629252826 -4397628552925 -280290 -389460350 388934193 604060 9310347 -4398027359712 4398018293559 -4397628833209 452901 130322489 -130820009 389460350 280284 -526151 4397498188623 -4397637619077 4397628308731 4397639555766 -4397636845444 4397629384795 -4397632095117 -4397636774109 -2783932 2783932 4397638379619 -4397641163550 4397639558036 -4397639558036 2783931 4397636779542 -4397636850878 513623 4397629069285 -9310345 -4397628478105 -56940 56940 -389571580 389571578 -389572040 389572041 4397628722299 -4397628722299 -50054 4397636227097 -7711351 -9310346 -9310344 9310344 389514646 -389515108 4397628722298 -4397628722298 -50055 -7711348 -9310343 -56932 56933 4397636539750 -4398026111790 389572040 4397628515752 7711344 -7711341 9310337 -4397617077567 4397617077566 -4397617078729 1162 -4397628615256 118944347 4397498046251 9397301 -4397626387899 -118944332 4397498046294 -4397616990650 9 11293518 -12041729 130985980 4397498046162 -4397616990413 4397626387889 -4397626390410 4397497401501 -4397616349819 2520 4397626387892 -4397626387891 1168 11293516 -12041727 4397638429618 -4397507443638 -118944253 4397616990415 -4397628982147 130935568 4397498042255 -4397616986098 1166 11293514 -12041725 -118944255 4397616990417 -4397628982146 11991728 118943714 -118943719 118943725 4397507444170 -4397507444171 -118943727 4397616986102 -4397616986102 -4397628858247 -526556 -388908757 699901 4397628552925 4398018049368 -4397637899362 -130120107 -389740634 4397498188626 4397628308735 -4397617088471 118957622 4397498375033 -4397632095116 4397632095116 4397639555765 -4397632095115 4397639555764 -2781659 -4397639555768 2710323 4397629140613 9310342 -9310336 -4397617077563 11292348 1163 4397626387895 -4397626387895 -1164 11293513 4397617321742 -4397629363465 12041724 -11991726 130935539 -130935539 11991725 4397626387894 -4397626387893 -1166 -11293516 4397629363466 12041726 -11991731 130935575 -130935575 130935579 4397498042831 -4397616986687 -4397626387890 4397617321738 -4397617322906 -11293518 49996 130935586 4397498377883 -11991732 11991731 4397626387891 118943857 -118943866 118945492 -130237842 4397628284170 -4397498046789 -130985592 4397629032380 -4397498046788 4397498042820 -4397616986693 4397498046268 -4397616990621 -1162 12040558 4397617322907 4397628371067 -4397617078721 -11292349 11292350 9310339 -9310337 -4398018049308 400971203 4397617078104 -4397617078104 -11447014 4397628525119 -4397617077568 4397626387899 -4397637681408 4397628371077 9310330 -4397638429617 4397629119287 -4397637879742 4397628569413 -154992 -9318521 9300848 -145512 17673 4976 -22337 641344 -3315005 4397631850965 -4397628477947 4397628535958 -9310328 -4397629119292 532288 4397628587000 -4397628587001 7711194 -7711193 244173 4397637788275 -9310326 532294 208 -3264171 4397631850966 -388932590 519915700 4397507437027 -4397631850965 133714790 4397498030183 -4397631744989 2731674 4397629363465 -4397632095139 -386198293 389419847 -3221555 4397639555783 -4397639555782 3563909 -8410 -3584279 3592688 7987 -7986 4397628539632 -4397628539632 -3555483 3563469 -3563471 3563894 -8409 8409 423 4397628295460 -4397628287051 4397628531223 -4397629363460 -2731654 4397641151793 -9301164 -4397632095114 4397639555763 383711 -4397636717942 -489878 -4397628722122 4397636247252 -7711295 -4398027359585 386198293 3221554 -389419847 4397628629408 -4397631850963 -4398025754075 -389419846 389419846 -7704820 4397631850963 244177 -4397632095140 3261925 -530250 530256 -530257 130930649 4397628511129 -4397631850962 -4397631850964 4397631850964 138 -142 4397628587001 4397638429617 -9480 22650 -4398018051881 388946793 4397629105087 9310327 -4397638429618 4397629119292 -4397629363464 -528201 4397629115202 -4397629119285 4397628535956 -4397631850944 2745678 475455 -485379 4397629115192 -4397628604996 -510196 4397629359368 7812687 -4397637162132 516231 -192501 107141 4397636719238 -7467014 4397629890781 288223780708398134 566774 -588171 24400 -29582 -60536 2200619229191 -2200619228995 2200619228987 -5270 -2200619159440 2200619159439 -254 255 333650 4397628589036 -4397629008046 500272 -500271 4397629105267 4397628629813 4397629105271 9310326 4397638420137 -4397638416047 4397638438697 17361 60335 4397628569477 -17673 17674 -163185 4977 4397628477947 -4397628535959 4397628535961 -4397631850949 2731658 4398018051880 -4397629105088 4397638415414 4397629119291 532293 -528199 -4397629115201 4397638270536 145512 4397628477944 -4397628535956 -3314988 4397628849172 4397636633878 4397629252224 -3838 -570458 563865 24648 -24307 24309 -73 -9155559 244178 -244179 -4397636645901 4397628922686 
Potential of Offsets elements: 28.0094 28.0094 28.0094 28.0094 28.0094 28.0094 28.0094 28.0094 28.0094 28.0094 28.0094 28.0094 28.0094 28.0094 28.0094 37.0094 28.0094 58.8056 28.0094 149.009 28.0094 28.0094 2118.01 28.0094 28.0094 28.0094 28.0094 28.0094 28.0094 28.0094 28.0094 28.0094 28.0094 28.0094 28.0094 28.0094 28.0094 28.0094 28.0094 28.0094 28.0094 28.0094 28.0094 28.0094 28.0094 28.0094 28.0094 28.0094 28.0094 28.0094 28.0094 28.0094 28.0094 28.0094 28.0094 28.0094 28.0094 28.0094 28.0094 28.0094 28.0094 28.0094 28.0094 28.0094 28.0094 28.0094 28.0094 28.0094 28.0094 28.0094 28.0094 28.0094 28.0094 1150.01 28.0094 28.0094 122.009 28.0094 28.0094 28.0094 28.0094 28.0094 28.0094 36.0094 28.0094 28.0094 28.0094 28.0094 28.0094 28.0094 28.0094 28.0094 28.0094 28.0094 28.0094 28.0094 28.0094 28.0094 28.0094 28.0094 28.0094 28.0094 28.0094 28.0094 28.0094 28.0094 28.0094 28.0094 28.0094 28.0094 28.0094 28.0094 28.0094 28.0094 28.0094 28.0094 28.0094 28.0094 28.0094 28.0094 28.0094 28.0094 28.0094 28.0094 28.0094 28.0094 28.0094 28.0094 28.0094 28.0094 28.0094 28.0094 28.0094 28.0094 28.0094 28.0094 28.0094 28.0094 28.0094 28.0094 28.0094 28.0094 28.0094 28.0094 28.0094 28.0094 28.0094 28.0094 28.0094 28.0094 28.0094 28.0094 28.0094 28.0094 28.0094 28.0094 28.0094 28.0094 28.0094 28.0094 28.0094 28.0094 28.0094 28.0094 28.0094 28.0094 28.0094 28.0094 28.0094 28.0094 28.0094 28.0094 1401.01 28.0094 28.0094 28.0094 28.0094 28.0094 28.0094 133.009 28.0094 28.0094 28.0094 28.0094 28.0094 28.0094 28.0094 28.0094 28.0094 28.0094 28.0094 28.0094 28.0094 28.0094 28.0094 28.0094 28.0094 28.0094 28.0094 273.009 28.0094 28.0094 28.0094 28.0094 28.0094 28.0094 28.0094 28.0094 28.0094 28.0094 112.009 28.0094 28.0094 88.0094 64.0094 28.0094 28.0094 28.0094 28.0094 28.0094 28.0094 28.0094 28.0094 28.0094 28.0094 28.0094 28.0094 28.0094 28.0094 28.0094 28.0094 28.0094 28.0094 28.0094 28.0094 28.0094 28.0094 933.009 28.0094 28.0094 28.0094 28.0094 28.0094 28.0094 28.0094 28.0094 28.0094 537.009 247.009 28.0094 28.0094 28.0094 811.009 28.0094 28.0094 28.0094 28.0094 28.0094 28.0094 28.0094 28.0094 28.0094 28.0094 28.0094 28.0094 28.0094 28.0094 28.0094 28.0094 28.0094 28.0094 28.0094 28.0094 28.0094 28.0094 28.0094 28.0094 28.0094 28.0094 28.0094 28.0094 28.0094 28.0094 28.0094 28.0094 28.0094 28.0094 28.0094 28.0094 264.009 28.0094 28.0094 30.0094 28.0094 28.0094 28.0094 28.0094 28.0094 28.0094 169.009 170.009 28.0094 165.009 28.0094 28.0094 28.0094 28.0094 125.009 28.0094 78.0094 28.0094 28.0094 28.0094 28.0094 29.0094 28.0094 28.0094 28.0094 28.0094 28.0094 52.0094 187.009 28.0094 28.0094 28.0094 28.0094 41.0094 65.0094 28.0094 451.009 28.0094 28.0094 28.0094 28.0094 28.0094 917.009 28.0094 28.0094 2305.12 796.009 28.0094 548.009 1133.01 28.0094 454.009 28.0094 28.0094 28.0094 28.0094 28.0094 28.0094 28.0094 28.0094 28.0094 28.0094 28.0094 28.0094 28.0094 28.0094 30.0094 28.0094 28.0094 28.0094 28.0094 28.0094 28.0094 28.0094 28.0094 28.0094 28.0094 28.0094 28.0094 28.0094 550.009 29.0094 28.0094 28.0094 53.0094 28.0094 28.0094 28.0094 28.0094 100.009 70.0094 28.0094 28.0094 28.0094 28.0094 28.0094 28.0094 28.0094 28.0094 28.0094 28.0094 34.0094 28.0094 28.0094 28.0094 28.0094 28.0094 28.0094 28.0094 28.0094 28.0094 28.0094 28.0094 28.0094 41.0094 52.0094 28.0094 28.0094 28.0094 28.0094 28.0094 28.0094 28.0094 28.0094 28.0094 28.0094 28.0094 28.0094 28.0094 28.0094 28.0094 28.0094 28.0094 28.0094 28.0094 28.0094 28.0094 28.0094 28.0094 28.0094 28.0094 28.0094 28.0094 28.0094 28.0094 28.0094 28.0094 28.0094 28.0094 28.0094 28.0094 28.0094 28.0094 28.0094 28.0094 28.0094 28.0094 28.0094 28.0094 28.0094 28.0094 28.0094 28.0094 28.0094 28.0094 28.0094 28.0094 28.0094 28.0094 28.0094 28.0094 28.0094 28.0094 28.0094 28.0094 28.0094 28.0094 30.0094 28.0094 28.0094 28.0094 28.0094 28.0094 28.0094 28.0094 28.0094 28.0094 28.0094 28.0094 28.0094 28.0094 28.0094 28.0094 28.0094 28.0094 71.0094 28.0094 28.0094 58.0094 28.0094 28.0094 28.0094 28.0094 28.0094 28.0094 28.0094 28.0094 28.0094 28.0094 28.0094 28.0094 28.0094 28.0094 28.0094 28.0094 28.0094 28.0094 28.0094 28.0094 28.0094 28.0094 28.0094 28.0094 28.0094 28.0094 28.0094 28.0094 28.0094 28.0094 28.0094 28.0094 28.0094 28.0094 28.0094 28.0094 28.0094 28.0094 28.0094 28.0094 28.0094 70.0094 28.0094 28.0094 49.0094 28.0094 28.0094 28.0094 28.0094 28.0094 28.0094 28.0094 28.0094 28.0094 28.0094 28.0094 28.0094 28.0094 28.0094 28.0094 28.0094 28.0094 28.0094 28.0094 28.0094 28.0094 28.0094 28.0094 28.0094 28.0094 28.0094 28.0094 28.0094 28.0094 28.0094 28.0094 28.0094 28.0094 28.0094 28.0094 28.0094 28.0094 28.0094 28.0094 28.0094 28.0094 28.0094 118.009 28.0094 28.0094 28.0094 28.0094 28.0094 28.0094 28.0094 28.0094 28.0094 28.0094 28.0094 28.0094 28.0094 28.0094 28.0094 28.0094 28.0094 28.0094 28.0094 28.0094 28.0094 28.0094 28.0094 28.0094 28.0094 28.0094 28.0094 28.0094 28.0094 28.0094 28.0094 28.0094 28.0094 28.0094 28.0094 28.0094 28.0094 28.0094 28.0094 28.0094 28.0094 28.0094 28.0094 28.0094 28.0094 28.0094 28.0094 28.0094 28.0094 28.0094 28.0094 28.0094 28.0094 28.0094 28.0094 28.0094 28.0094 28.0094 28.0094 28.0094 28.0094 28.0094 28.0094 28.0094 28.0094 28.0094 28.0094 44.0094 28.0094 29.0094 28.0094 28.0094 28.0094 28.0094 127.009 28.0094 28.0094 28.0094 35.0094 28.0094 28.0094 28.0094 28.0094 28.0094 28.0094 28.0094 28.0094 28.0094 28.0094 28.0094 28.0094 28.0094 28.0094 28.0094 28.0094 28.0094 28.0094 28.0094 28.0094 28.0094 28.0094 28.0094 28.0094 28.0094 28.0094 32.0094 28.0094 28.0094 28.0094 60.0094 28.0094 28.0094 28.0094 28.0094 28.0094 28.0094 28.0094 28.0094 28.0094 28.0094 28.0094 28.0094 28.0094 28.0094 28.0094 28.0094 28.0094 28.0094 28.0094 28.0094 28.0094 28.0094 28.0094 28.0094 28.0094 28.0094 28.0094 28.0094 28.0094 28.0094 28.0094 28.0094 28.0094 28.0094 28.0094 28.0094 28.0094 28.0094 28.0094 28.0094 28.0094 28.0094 28.0094 28.0094 28.0094 28.0094 28.0094 28.0094 28.0094 28.0094 28.0094 28.0094 28.0094 28.0094 28.0094 28.0094 28.0094 28.0094 28.0094 28.0094 28.0094 28.0094 28.0094 28.0094 28.0094 28.0094 28.0094 28.0094 28.0094 28.0094 28.0094 28.0094 28.0094 28.0094 28.0094 28.0094 28.0094 28.0094 28.0094 28.0094 28.0094 28.0094 28.0094 28.0094 28.0094 28.0094 28.0094 28.0094 28.0094 28.0094 28.0094 28.0094 28.0094 28.0094 28.0094 28.0094 28.0094 28.0094 29.0094 28.0094 28.0094 28.0094 28.0094 28.0094 28.0094 28.0094 28.0094 28.0094 28.0094 28.0094 28.0094 28.0094 28.0094 148.009 28.0094 28.0094 28.0094 28.0094 28.0094 28.0094 28.0094 28.0094 28.0094 28.0094 28.0094 28.0094 28.0094 28.0094 28.0094 28.0094 28.0094 28.0094 28.0094 28.0094 28.0094 28.0094 29.0094 28.0094 28.0094 28.0094 28.0094 28.0094 28.0094 28.0094 28.0094 28.0094 28.0094 28.0094 28.0094 28.0094 28.0094 28.0094 28.0094 28.0094 28.0094 28.0094 28.0094 29.0094 28.0094 28.0094 28.0094 28.0094 51.0094 28.0094 28.0094 28.0094 28.0094 28.0094 28.0094 28.0094 28.0094 28.0094 28.0094 28.0094 28.0094 46.0094 28.0094 28.0094 28.0094 28.0094 28.0094 28.0094 28.0094 28.0094 28.0094 28.0094 28.0094 28.0094 28.0094 28.0094 28.0094 28.0094 28.0094 28.0094 28.0094 28.0094 28.0094 28.0094 28.0094 28.0094 28.0094 28.0094 28.0094 28.0094 28.0094 28.0094 28.0094 28.0094 28.0094 28.0094 28.0094 28.0094 28.0094 28.0094 28.0094 28.0094 28.0094 28.0094 28.0094 28.0094 28.0094 28.0094 28.0094 28.0094 28.0094 28.0094 28.0094 28.0094 28.0094 28.0094 28.0094 28.0094 28.0094 28.0094 28.0094 28.0094 28.0094 28.0094 28.0094 28.0094 28.0094 28.0094 28.0094 28.0094 28.0094 28.0094 28.0094 28.0094 28.0094 28.0094 28.0094 28.0094 28.0094 28.0094 28.0094 124.009 28.0094 28.0094 60.0094 40.0094 28.0094 28.0094 28.0094 28.0094 28.0094 28.0094 28.0094 88.0094 28.0094 28.0094 28.0094 28.0094 28.0094 28.0094 286.009 28.0094 28.0094 28.0094 28.0094 28.0094 28.0094 39.0094 28.0094 28.0094 28.0094 28.0094 28.0094 28.0094 28.0094 28.0094 28.0094 28.0094 28.0094 28.0094 28.0094 28.0094 28.0094 28.0094 38.0094 34.0094 28.0094 28.0094 28.0094 28.0094 28.0094 139.009 28.0094 28.0094 28.0094 28.0094 42.0094 28.0094 28.0094 28.0094 28.0094 28.0094 28.0094 28.0094 28.0094 28.0094 28.0094 28.0094 28.0094 28.0094 28.0094 28.0094 28.0094 28.0094 28.0094 28.0094 28.0094 28.0094 28.0094 28.0094 28.0094 28.0094 28.0094 28.0094 28.0094 28.0094 28.0094 28.0094 28.0094 28.0094 28.0094 28.0094 28.0094 28.0094 28.0094 28.0094 28.0094 28.0094 28.0094 28.0094 28.0094 28.0094 52.0094 28.0094 28.0094 28.0094 28.0094 28.0094 28.0094 28.0094 28.0094 29.0094 28.0094 28.0094 28.0094 28.0094 28.0094 28.0094 28.0094 28.0094 28.0094 28.0094 28.0094 28.0094 91.0094 28.0094 28.0094 28.0094 28.0094 28.0094 28.0094 28.0094 28.0094 28.0094 28.0094 28.0094 28.0094 28.0094 28.0094 28.0094 28.0094 28.0094 28.0094 28.0094 28.0094 28.0094 28.0094 28.0094 28.0094 28.0094 28.0094 28.0094 28.0094 28.0094 28.0094 28.0094 31.0094 28.0094 28.0094 28.0094 28.0094 28.0094 28.0094 28.0094 28.0094 28.0094 28.0094 28.0094 28.0094 28.0094 28.0094 28.0094 28.0094 28.0094 28.0094 28.0094 28.0094 28.0094 28.0094 28.0094 31.0094 28.0094 28.0094 28.0094 28.0094 28.0094 28.0094 28.0094 149.009 28.0094 28.0094 28.0094 28.0094 28.0094 28.0094 28.0094 28.0094 28.0094 28.0094 28.0094 28.0094 64.0094 61.0094 52.0094 37.0094 28.0094 96.0094 28.0094 28.0094 28.0094 28.0094 28.0094 28.0094 28.0094 28.0094 28.0094 28.0094 28.0094 28.0094 28.0094 28.0094 28.0094 28.0094 28.0094 28.0094 28.0094 28.0094 28.0094 28.0094 28.0094 28.0094 28.0094 28.0094 28.0094 28.0094 28.0094 28.0094 28.0094 28.0094 28.0094 28.0094 28.0094 28.0094 28.0094 28.0094 33.0094 28.0094 28.0094 28.0094 60.0094 42.0094 28.0094 28.0094 29.0094 37.0094 55.0094 55.0094 34.0094 37.0094 28.0094 64.0094 46.0094 46.0094 28.0094 28.0094 28.0094 28.0094 28.0094 28.0094 28.0094 28.0094 28.0094 28.0094 28.0094 28.0094 28.0094 28.0094 28.0094 28.0094 28.0094 28.0094 28.0094 28.0094 28.0094 28.0094 28.0094 28.0094 28.0094 28.0094 28.0094 28.0094 28.0094 28.0094 28.0094 28.0094 28.0094 28.0094 28.0094 28.0094 28.0094 28.0094 28.0094 28.0094 28.0094 28.0094 28.0094 28.0094 28.0094 28.0094 28.0094 28.0094 28.0094 28.0094 28.0094 28.0094 28.0094 28.0094 28.0094 28.0094 28.0094 28.0094 28.0094 28.0094 28.0094 28.0094 28.0094 28.0094 28.0094 28.0094 28.0094 28.0094 28.0094 28.0094 28.0094 28.0094 28.0094 28.0094 28.0094 28.0094 28.0094 28.0094 28.0094 28.0094 28.0094 28.0094 28.0094 28.0094 28.0094 28.0094 28.0094 28.0094 28.0094 28.0094 28.0094 37.0094 36.0094 28.0094 28.0094 28.0094 28.0094 28.0094 28.0094 28.0094 28.0094 28.0094 28.0094 28.0094 28.0094 28.0094 28.0094 28.0094 28.0094 28.0094 28.0094 28.0094 28.0094 28.0094 28.0094 28.0094 28.0094 28.0094 28.0094 28.0094 34.0094 28.0094 28.0094 28.0094 28.0094 28.0094 28.0094 28.0094 28.0094 28.0094 28.0094 28.0094 28.0094 28.0094 28.0094 28.0094 28.0094 28.0094 28.0094 326.009 28.0094 28.0094 28.0094 28.0094 28.0094 28.0094 28.0094 28.0094 28.0094 32.0094 28.0094 28.0094 46.0094 28.0094 28.0094 28.0094 28.0094 28.0094 28.0094 28.0094 28.0094 28.0094 28.0094 28.0094 28.0094 28.0094 28.0094 28.0094 28.0094 28.0094 28.0094 28.0094 28.0094 28.0094 28.0094 28.0094 28.0094 28.0094 28.0094 28.0094 28.0094 28.0094 28.0094 28.0094 28.0094 28.0094 28.0094 28.0094 28.0094 28.0094 28.0094 28.0094 28.0094 29.0094 28.0094 28.0094 28.0094 28.0094 28.0094 28.0094 28.0094 28.0094 28.0094 28.0094 28.0094 28.0094 28.0094 28.0094 28.0094 28.0094 28.0094 28.0094 28.0094 28.0094 28.0094 28.0094 28.0094 28.0094 28.0094 28.0094 28.0094 28.0094 28.0094 28.0094 28.0094 28.0094 28.0094 28.0094 28.0094 28.0094 28.0094 28.0094 28.0094 28.0094 28.0094 28.0094 28.0094 28.0094 28.0094 28.0094 28.0094 28.0094 28.0094 28.0094 28.0094 28.0094 28.0094 28.0094 28.0094 28.0094 28.0094 28.0094 28.0094 28.0094 28.0094 28.0094 28.0094 28.0094 28.0094 28.0094 28.0094 28.0094 28.0094 28.0094 28.0094 28.0094 28.0094 28.0094 28.0094 68.0094 28.0094 28.0094 28.0094 28.0094 28.0094 28.0094 28.0094 28.0094 28.0094 28.0094 28.0094 28.0094 28.0094 28.0094 28.0094 28.0094 28.0094 28.0094 28.0094 28.0094 28.0094 28.0094 28.0094 28.0094 28.0094 28.0094 28.0094 28.0094 28.0094 28.0094 28.0094 28.0094 28.0094 28.0094 28.0094 28.0094 35.0094 56.0094 28.0094 28.0094 52.0094 28.0094 28.0094 28.0094 28.0094 28.0094 28.0094 28.0094 28.0094 28.0094 28.0094 28.0094 28.0094 28.0094 28.0094 28.0094 28.0094 28.0094 28.0094 28.0094 28.0094 28.0094 28.0094 28.0094 28.0094 28.0094 28.0094 28.0094 28.0094 28.0094 102.009 28.0094 28.0094 28.0094 28.0094 28.0094 28.0094 28.0094 28.0094 28.0094 28.0094 28.0094 28.0094 28.0094 28.0094 28.0094 28.0094 28.0094 28.0094 28.0094 28.0094 28.0094 28.0094 28.0094 28.0094 28.0094 28.0094 28.0094 28.0094 28.0094 28.0094 28.0094 28.0094 28.0094 28.0094 28.0094 28.0094 28.0094 28.0094 28.0094 28.0094 28.0094 28.0094 28.0094 28.0094 28.0094 28.0094 28.0094 28.0094 1661.01 28.0094 28.0094 28.0094 28.0094 28.0094 28.0094 28.0094 28.0094 28.0094 28.0094 28.0094 28.0094 28.0094 28.0094 28.0094 28.0094 28.0094 28.0094 28.0094 28.0094 28.0094 28.0094 28.0094 28.0094 28.0094 28.0094 28.0094 28.0094 28.0094 28.0094 28.0094 28.0094 28.0094 28.0094 28.0094 28.0094 28.0094 28.0094 28.0094 28.0094 28.0094 28.0094 28.0094 28.0094 28.0094 28.0094 28.0094 28.0094 28.0094 28.0094 28.0094 28.0094 28.0094 28.0094 28.0094 28.0094 28.0094 28.0094 28.0094 28.0094 28.0094 28.0094 28.0094 28.0094 28.0094 28.0094 28.0094 28.0094 28.0094 28.0094 28.0094 28.0094 28.0094 28.0094 28.0094 28.0094 28.0094 28.0094 28.0094 28.0094 28.0094 28.0094 28.0094 28.0094 28.0094 28.0094 37.0094 28.0094 28.0094 28.0094 28.0094 28.0094 28.0094 28.0094 28.0094 28.0094 28.0094 28.0094 28.0094 28.0094 28.0094 28.0094 28.0094 28.0094 28.0094 28.0094 28.0094 52.0094 149.009 28.0094 28.0094 28.0094 28.0094 28.0094 28.0094 28.0094 28.0094 28.0094 28.0094 28.0094 28.0094 28.0094 28.0094 28.0094 28.0094 28.0094 28.0094 28.0094 28.0094 28.0094 28.0094 28.0094 28.0094 28.0094 28.0094 28.0094 28.0094 28.0094 28.0094 28.0094 28.0094 28.0094 28.0094 28.0094 28.0094 28.0094 28.0094 28.0094 28.0094 28.0094 28.0094 28.0094 28.0094 28.0094 28.0094 28.0094 28.0094 28.0094 28.0094 28.0094 28.0094 28.0094 28.0094 28.0094 28.0094 28.0094 28.0094 28.0094 28.0094 28.0094 28.0094 28.0094 28.0094 28.0094 28.0094 28.0094 28.0094 28.0094 28.0094 28.0094 28.0094 28.0094 28.0094 28.0094 28.0094 28.0094 28.0094 28.0094 28.0094 28.0094 28.0094 28.0094 28.0094 28.0094 28.0094 28.0094 28.0094 28.0094 28.0094 28.0094 28.0094 28.0094 28.0094 28.0094 28.0094 28.0094 28.0094 28.0094 28.0094 28.0094 28.0094 28.0094 28.0094 28.0094 28.0094 28.0094 28.0094 28.0094 28.0094 28.0094 140.009 28.0094 28.0094 28.0094 28.0094 92.0094 28.0094 28.0094 28.0094 28.0094 28.0094 28.0094 28.0094 28.0094 28.0094 28.0094 28.0094 28.0094 28.0094 28.0094 28.0094 28.0094 28.0094 28.0094 28.0094 28.0094 28.0094 28.0094 28.0094 28.0094 28.0094 28.0094 28.0094 28.0094 28.0094 28.0094 28.0094 28.0094 28.0094 28.0094 28.0094 28.0094 28.0094 28.0094 28.0094 28.0094 28.0094 28.0094 28.0094 28.0094 28.0094 28.0094 28.0094 28.0094 28.0094 28.0094 28.0094 28.0094 28.0094 28.0094 28.0094 46.0094 28.0094 28.0094 28.0094 28.0094 28.0094 28.0094 28.0094 28.0094 28.0094 28.0094 28.0094 28.0094 28.0094 28.0094 28.0094 28.0094 28.0094 28.0094 28.0094 28.0094 28.0094 28.0094 28.0094 28.0094 28.0094 28.0094 28.0094 28.0094 28.0094 28.0094 28.0094 28.0094 28.0094 28.0094 28.0094 28.0094 28.0094 28.0094 28.0094 28.0094 28.0094 28.0094 28.0094 28.0094 28.0094 28.0094 28.0094 28.0094 28.0094 28.0094 28.0094 28.0094 28.0094 28.0094 28.0094 28.0094 76.0094 28.0094 28.0094 28.0094 28.0094 28.0094 28.0094 28.0094 28.0094 28.0094 28.0094 28.0094 28.0094 28.0094 28.0094 28.0094 28.0094 28.0094 28.0094 28.0094 28.0094 28.0094 28.0094 28.0094 28.0094 28.0094 28.0094 28.0094 28.0094 28.0094 28.0094 28.0094 28.0094 28.0094 28.0094 28.0094 28.0094 28.0094 28.0094 28.0094 28.0094 28.0094 28.0094 28.0094 28.0094 28.0094 28.0094 28.0094 28.0094 28.0094 28.0094 28.0094 28.0094 28.0094 28.0094 28.0094 28.0094 28.0094 28.0094 28.0094 28.0094 28.0094 229.009 28.0094 28.0094 28.0094 28.0094 28.0094 28.0094 28.0094 28.0094 28.0094 28.0094 28.0094 28.0094 28.0094 28.0094 28.0094 28.0094 28.0094 28.0094 28.0094 28.0094 28.0094 28.0094 28.0094 28.0094 28.0094 28.0094 28.0094 28.0094 28.0094 28.0094 28.0094 28.0094 28.0094 28.0094 28.0094 28.0094 28.0094 28.0094 28.0094 28.0094 28.0094 28.0094 29.0094 28.0094 28.0094 28.0094 28.0094 28.0094 52.0094 28.0094 28.0094 28.0094 28.0094 28.0094 28.0094 28.0094 28.0094 28.0094 28.0094 28.0094 28.0094 28.0094 28.0094 28.0094 28.0094 28.0094 28.0094 28.0094 28.0094 28.0094 28.0094 28.0094 28.0094 28.0094 28.0094 28.0094 28.0094 28.0094 28.0094 28.0094 28.0094 28.0094 28.0094 28.0094 28.0094 28.0094 28.0094 28.0094 28.0094 152.009 28.0094 28.0094 28.0094 28.0094 28.0094 28.0094 28.0094 28.0094 28.0094 28.0094 28.0094 28.0094 28.0094 28.0094 28.0094 116.009 28.0094 28.0094 28.0094 28.0094 28.0094 28.0094 28.0094 28.0094 28.0094 28.0094 28.0094 28.0094 28.0094 28.0094 28.0094 28.0094 28.0094 28.0094 28.0094 28.0094 28.0094 28.0094 28.0094 28.0094 28.0094 28.0094 28.0094 28.0094 28.0094 28.0094 28.0094 28.0094 28.0094 28.0094 28.0094 28.0094 28.0094 28.0094 29.0094 28.0094 28.0094 28.0094 28.0094 28.0094 28.0094 28.0094 28.0094 28.0094 28.0094 28.0094 28.0094 28.0094 28.0094 28.0094 28.0094 28.0094 28.0094 28.0094 28.0094 28.0094 28.0094 28.0094 28.0094 28.0094 28.0094 28.0094 34.0094 28.0094 28.0094 28.0094 28.0094 28.0094 28.0094 28.0094 28.0094 28.0094 28.0094 28.0094 28.0094 28.0094 28.0094 28.0094 28.0094 28.0094 28.0094 28.0094 28.0094 28.0094 28.0094 28.0094 28.0094 28.0094 28.0094 28.0094 28.0094 28.0094 75.0094 65.0094 28.0094 28.0094 28.0094 28.0094 28.0094 28.0094 28.0094 28.0094 28.0094 28.0094 28.0094 28.0094 28.0094 28.0094 28.0094 28.0094 28.0094 28.0094 28.0094 28.0094 28.0094 28.0094 70.0094 28.0094 28.0094 28.0094 36.0094 28.0094 28.0094 28.0094 28.0094 28.0094 28.0094 28.0094 28.0094 28.0094 28.0094 28.0094 28.0094 28.0094 28.0094 28.0094 28.0094 28.0094 28.0094 28.0094 28.0094 28.0094 28.0094 28.0094 28.0094 28.0094 28.0094 28.0094 28.0094 28.0094 28.0094 28.0094 28.0094 28.0094 28.0094 28.0094 28.0094 28.0094 28.0094 28.0094 28.0094 28.0094 28.0094 28.0094 28.0094 28.0094 28.0094 28.0094 28.0094 28.0094 28.0094 28.0094 28.0094 28.0094 28.0094 28.0094 28.0094 28.0094 28.0094 28.0094 28.0094 28.0094 28.0094 28.0094 28.0094 28.0094 28.0094 28.0094 28.0094 28.0094 28.0094 28.0094 28.0094 28.0094 28.0094 28.0094 28.0094 28.0094 28.0094 28.0094 28.0094 28.0094 28.0094 28.0094 28.0094 48.0094 28.0094 28.0094 28.0094 28.0094 28.0094 292.009 180.009 148.009 28.0094 28.0094 28.0094 28.0094 292.009 109.009 220.009 266.009 46.0094 158.009 200.009 94.0094 28.0094 28.0094 184.009 88.0094 391.009 173.009 68.0094 106.009 28.0094 28.0094 28.0094 28.0094 28.0094 28.0094 28.0094 28.0094 28.0094 28.0094 28.0094 28.0094 28.0094 28.0094 28.0094 28.0094 28.0094 28.0094 28.0094 28.0094 76.0094 55.0094 28.0094 28.0094 28.0094 28.0094 28.0094 28.0094 28.0094 28.0094 28.0094 28.0094 28.0094 28.0094 160.009 28.0094 28.0094 316.009 172.009 172.009 160.009 28.0094 28.0094 28.0094 28.0094 28.0094 28.0094 28.0094 28.0094 28.0094 28.0094 28.0094 28.0094 28.0094 37.0094 28.0094 34.0094 28.0094 118.009 46.0094 118.009 37.0094 37.0094 32.0094 49.0094 58.0094 42.0094 43.0094 64.0094 223.009 186.009 28.0094 28.0094 
rewards of Offsets elements: 0 0 0 0 0 0 0 0 0 0 0 0 0 0 0 9 0 39 0 121 0 0 2090 0 0 0 0 0 0 0 0 0 0 0 0 0 0 0 0 0 0 0 0 0 0 0 0 0 0 0 0 0 0 0 0 0 0 0 0 0 0 0 0 0 0 0 0 0 0 0 0 0 0 1122 0 0 94 0 0 0 0 0 0 8 0 0 0 0 0 0 0 0 0 0 0 0 0 0 0 0 0 0 0 0 0 0 0 0 0 0 0 0 0 0 0 0 0 0 0 0 0 0 0 0 0 0 0 0 0 0 0 0 0 0 0 0 0 0 0 0 0 0 0 0 0 0 0 0 0 0 0 0 0 0 0 0 0 0 0 0 0 0 0 0 0 0 0 0 0 0 0 0 1373 0 0 0 0 0 0 105 0 0 0 0 0 0 0 0 0 0 0 0 0 0 0 0 0 0 0 245 0 0 0 0 0 0 0 0 0 0 84 0 0 60 36 0 0 0 0 0 0 0 0 0 0 0 0 0 0 0 0 0 0 0 0 0 0 905 0 0 0 0 0 0 0 0 0 509 219 0 0 0 783 0 0 0 0 0 0 0 0 0 0 0 0 0 0 0 0 0 0 0 0 0 0 0 0 0 0 0 0 0 0 0 0 0 0 0 0 236 0 0 2 0 0 0 0 0 0 141 142 0 137 0 0 0 0 97 0 50 0 0 0 0 1 0 0 0 0 0 24 159 0 0 0 0 13 37 0 423 0 0 0 0 0 889 0 0 2305 768 0 520 1105 0 426 0 0 0 0 0 0 0 0 0 0 0 0 0 0 2 0 0 0 0 0 0 0 0 0 0 0 0 0 522 1 0 0 25 0 0 0 0 72 42 0 0 0 0 0 0 0 0 0 0 6 0 0 0 0 0 0 0 0 0 0 0 0 13 24 0 0 0 0 0 0 0 0 0 0 0 0 0 0 0 0 0 0 0 0 0 0 0 0 0 0 0 0 0 0 0 0 0 0 0 0 0 0 0 0 0 0 0 0 0 0 0 0 0 0 0 0 0 0 0 0 0 0 0 0 0 2 0 0 0 0 0 0 0 0 0 0 0 0 0 0 0 0 0 43 0 0 30 0 0 0 0 0 0 0 0 0 0 0 0 0 0 0 0 0 0 0 0 0 0 0 0 0 0 0 0 0 0 0 0 0 0 0 0 0 0 0 0 0 42 0 0 21 0 0 0 0 0 0 0 0 0 0 0 0 0 0 0 0 0 0 0 0 0 0 0 0 0 0 0 0 0 0 0 0 0 0 0 0 0 0 0 0 0 0 90 0 0 0 0 0 0 0 0 0 0 0 0 0 0 0 0 0 0 0 0 0 0 0 0 0 0 0 0 0 0 0 0 0 0 0 0 0 0 0 0 0 0 0 0 0 0 0 0 0 0 0 0 0 0 0 0 0 0 0 0 0 0 0 0 0 0 0 16 0 1 0 0 0 0 99 0 0 0 7 0 0 0 0 0 0 0 0 0 0 0 0 0 0 0 0 0 0 0 0 0 0 0 0 0 0 4 0 0 0 32 0 0 0 0 0 0 0 0 0 0 0 0 0 0 0 0 0 0 0 0 0 0 0 0 0 0 0 0 0 0 0 0 0 0 0 0 0 0 0 0 0 0 0 0 0 0 0 0 0 0 0 0 0 0 0 0 0 0 0 0 0 0 0 0 0 0 0 0 0 0 0 0 0 0 0 0 0 0 0 0 0 0 0 0 0 0 0 0 0 0 0 0 0 0 0 0 0 0 1 0 0 0 0 0 0 0 0 0 0 0 0 0 0 120 0 0 0 0 0 0 0 0 0 0 0 0 0 0 0 0 0 0 0 0 0 0 1 0 0 0 0 0 0 0 0 0 0 0 0 0 0 0 0 0 0 0 0 1 0 0 0 0 23 0 0 0 0 0 0 0 0 0 0 0 0 18 0 0 0 0 0 0 0 0 0 0 0 0 0 0 0 0 0 0 0 0 0 0 0 0 0 0 0 0 0 0 0 0 0 0 0 0 0 0 0 0 0 0 0 0 0 0 0 0 0 0 0 0 0 0 0 0 0 0 0 0 0 0 0 0 0 0 0 0 0 0 0 0 0 0 0 0 0 0 0 96 0 0 32 12 0 0 0 0 0 0 0 60 0 0 0 0 0 0 258 0 0 0 0 0 0 11 0 0 0 0 0 0 0 0 0 0 0 0 0 0 0 0 10 6 0 0 0 0 0 111 0 0 0 0 14 0 0 0 0 0 0 0 0 0 0 0 0 0 0 0 0 0 0 0 0 0 0 0 0 0 0 0 0 0 0 0 0 0 0 0 0 0 0 0 0 0 0 0 0 0 24 0 0 0 0 0 0 0 0 1 0 0 0 0 0 0 0 0 0 0 0 0 63 0 0 0 0 0 0 0 0 0 0 0 0 0 0 0 0 0 0 0 0 0 0 0 0 0 0 0 0 0 0 0 3 0 0 0 0 0 0 0 0 0 0 0 0 0 0 0 0 0 0 0 0 0 0 0 3 0 0 0 0 0 0 0 121 0 0 0 0 0 0 0 0 0 0 0 0 36 33 24 9 0 68 0 0 0 0 0 0 0 0 0 0 0 0 0 0 0 0 0 0 0 0 0 0 0 0 0 0 0 0 0 0 0 0 0 0 0 0 0 0 5 0 0 0 32 14 0 0 1 9 27 27 6 9 0 36 18 18 0 0 0 0 0 0 0 0 0 0 0 0 0 0 0 0 0 0 0 0 0 0 0 0 0 0 0 0 0 0 0 0 0 0 0 0 0 0 0 0 0 0 0 0 0 0 0 0 0 0 0 0 0 0 0 0 0 0 0 0 0 0 0 0 0 0 0 0 0 0 0 0 0 0 0 0 0 0 0 0 0 0 0 0 0 0 0 0 0 0 0 9 8 0 0 0 0 0 0 0 0 0 0 0 0 0 0 0 0 0 0 0 0 0 0 0 0 0 0 0 6 0 0 0 0 0 0 0 0 0 0 0 0 0 0 0 0 0 0 298 0 0 0 0 0 0 0 0 0 4 0 0 18 0 0 0 0 0 0 0 0 0 0 0 0 0 0 0 0 0 0 0 0 0 0 0 0 0 0 0 0 0 0 0 0 0 0 0 0 0 0 0 0 1 0 0 0 0 0 0 0 0 0 0 0 0 0 0 0 0 0 0 0 0 0 0 0 0 0 0 0 0 0 0 0 0 0 0 0 0 0 0 0 0 0 0 0 0 0 0 0 0 0 0 0 0 0 0 0 0 0 0 0 0 0 0 0 0 0 0 0 0 0 0 0 0 0 0 0 40 0 0 0 0 0 0 0 0 0 0 0 0 0 0 0 0 0 0 0 0 0 0 0 0 0 0 0 0 0 0 0 0 0 0 0 0 7 28 0 0 24 0 0 0 0 0 0 0 0 0 0 0 0 0 0 0 0 0 0 0 0 0 0 0 0 0 0 0 0 0 74 0 0 0 0 0 0 0 0 0 0 0 0 0 0 0 0 0 0 0 0 0 0 0 0 0 0 0 0 0 0 0 0 0 0 0 0 0 0 0 0 0 0 0 0 0 0 0 0 1633 0 0 0 0 0 0 0 0 0 0 0 0 0 0 0 0 0 0 0 0 0 0 0 0 0 0 0 0 0 0 0 0 0 0 0 0 0 0 0 0 0 0 0 0 0 0 0 0 0 0 0 0 0 0 0 0 0 0 0 0 0 0 0 0 0 0 0 0 0 0 0 0 0 0 0 0 0 0 0 0 0 0 0 0 0 0 9 0 0 0 0 0 0 0 0 0 0 0 0 0 0 0 0 0 0 0 0 24 121 0 0 0 0 0 0 0 0 0 0 0 0 0 0 0 0 0 0 0 0 0 0 0 0 0 0 0 0 0 0 0 0 0 0 0 0 0 0 0 0 0 0 0 0 0 0 0 0 0 0 0 0 0 0 0 0 0 0 0 0 0 0 0 0 0 0 0 0 0 0 0 0 0 0 0 0 0 0 0 0 0 0 0 0 0 0 0 0 0 0 0 0 0 0 0 0 0 0 0 0 0 0 0 0 0 0 0 0 0 0 0 112 0 0 0 0 64 0 0 0 0 0 0 0 0 0 0 0 0 0 0 0 0 0 0 0 0 0 0 0 0 0 0 0 0 0 0 0 0 0 0 0 0 0 0 0 0 0 0 0 0 0 0 0 0 0 0 0 0 0 0 0 18 0 0 0 0 0 0 0 0 0 0 0 0 0 0 0 0 0 0 0 0 0 0 0 0 0 0 0 0 0 0 0 0 0 0 0 0 0 0 0 0 0 0 0 0 0 0 0 0 0 0 0 0 0 0 0 0 48 0 0 0 0 0 0 0 0 0 0 0 0 0 0 0 0 0 0 0 0 0 0 0 0 0 0 0 0 0 0 0 0 0 0 0 0 0 0 0 0 0 0 0 0 0 0 0 0 0 0 0 0 0 0 0 0 0 0 0 0 0 201 0 0 0 0 0 0 0 0 0 0 0 0 0 0 0 0 0 0 0 0 0 0 0 0 0 0 0 0 0 0 0 0 0 0 0 0 0 0 0 0 0 0 1 0 0 0 0 0 24 0 0 0 0 0 0 0 0 0 0 0 0 0 0 0 0 0 0 0 0 0 0 0 0 0 0 0 0 0 0 0 0 0 0 0 0 0 0 0 0 124 0 0 0 0 0 0 0 0 0 0 0 0 0 0 0 88 0 0 0 0 0 0 0 0 0 0 0 0 0 0 0 0 0 0 0 0 0 0 0 0 0 0 0 0 0 0 0 0 0 0 0 0 0 0 1 0 0 0 0 0 0 0 0 0 0 0 0 0 0 0 0 0 0 0 0 0 0 0 0 0 0 0 6 0 0 0 0 0 0 0 0 0 0 0 0 0 0 0 0 0 0 0 0 0 0 0 0 0 0 0 0 0 47 37 0 0 0 0 0 0 0 0 0 0 0 0 0 0 0 0 0 0 0 0 0 0 42 0 0 0 8 0 0 0 0 0 0 0 0 0 0 0 0 0 0 0 0 0 0 0 0 0 0 0 0 0 0 0 0 0 0 0 0 0 0 0 0 0 0 0 0 0 0 0 0 0 0 0 0 0 0 0 0 0 0 0 0 0 0 0 0 0 0 0 0 0 0 0 0 0 0 0 0 0 0 0 0 0 0 0 0 0 0 0 0 20 0 0 0 0 0 264 152 120 0 0 0 0 264 81 192 238 18 130 172 66 0 0 156 60 363 145 40 78 0 0 0 0 0 0 0 0 0 0 0 0 0 0 0 0 0 0 0 0 48 27 0 0 0 0 0 0 0 0 0 0 0 0 132 0 0 288 144 144 132 0 0 0 0 0 0 0 0 0 0 0 0 0 9 0 6 0 90 18 90 9 9 4 21 30 14 15 36 195 158 0 0 Printing Sanity3
offset_index value2415
offset list size2415
reward size2415
potential size2415
-----------------------------------------------------------------------------------------------------------------------------------------------------------------------------------------------------

DRAM Statistics
 CHANNEL 0
 RQ ROW_BUFFER_HIT:      70088  ROW_BUFFER_MISS:     254177
 DBUS_CONGESTED:        215
 WQ ROW_BUFFER_HIT:      38400  ROW_BUFFER_MISS:     180785  FULL:          0

 AVG_CONGESTED_CYCLE: 4
 All warmup complete: 2
Channel 0 Bank busy for read cycles: 0
Channel 0 Bank busy for write cycles: 0
Channel 0
Rank 0
0banks busy for read cycles: 382511066
0banks busy for write cycles: 117315
1banks busy for read cycles: 29644123
1banks busy for write cycles: 16915178
2banks busy for read cycles: 3940406
2banks busy for write cycles: 4445059
3banks busy for read cycles: 499924
3banks busy for write cycles: 1683611
4banks busy for read cycles: 221292
4banks busy for write cycles: 840225
5banks busy for read cycles: 99477
5banks busy for write cycles: 503916
6banks busy for read cycles: 73920
6banks busy for write cycles: 323362
7banks busy for read cycles: 46839
7banks busy for write cycles: 269662
8banks busy for read cycles: 56675
8banks busy for write cycles: 259441

CPU 0 Branch Prediction Accuracy: 99.8118% MPKI: 0.33607 Average ROB Occupancy at Mispredict: 42.9386
Branch types
NOT_BRANCH: 164293651 82.1468%
BRANCH_DIRECT_JUMP: 1737856 0.868928%
BRANCH_INDIRECT: 9415713 4.70786%
BRANCH_CONDITIONAL: 18256214 9.12811%
BRANCH_DIRECT_CALL: 2474421 1.23721%
BRANCH_INDIRECT_CALL: 673221 0.33661%
BRANCH_RETURN: 3148634 1.57432%
BRANCH_OTHER: 0 0%

DRAM PAGES: 1048576
Allocated PAGES: 6527
