
*** ChampSim Multicore Out-of-Order Simulator ***

Warmup Instructions: 50000000
Simulation Instructions: 200000000
Number of CPUs: 1
LLC sets: 2048
LLC ways: 16
Off-chip DRAM Size: 4096 MB Channels: 1 Width: 64-bit Data Rate: 6400 MT/s
CPU 0 runs traces/spec2k17/srv_40.champsimtrace.xz
.xz
BTB has LRU replacement policy
ITLB has LRU replacement policy
DTLB has LRU replacement policy
STLB has LRU replacement policy
L1I has LRU replacement policy
L1D has LRU replacement policy
Initialize SRRIP state for L2C
Initialize DRRIP state for LLC
Heartbeat CPU 0 instructions: 10000001 cycles: 2802484 heartbeat IPC: 3.56826 cumulative IPC: 3.56826 (Simulation time: 0 hr 0 min 40 sec) 
Heartbeat CPU 0 instructions: 20000003 cycles: 5824290 heartbeat IPC: 3.30928 cumulative IPC: 3.4339 (Simulation time: 0 hr 1 min 20 sec) 
Heartbeat CPU 0 instructions: 30000002 cycles: 8855559 heartbeat IPC: 3.29895 cumulative IPC: 3.3877 (Simulation time: 0 hr 2 min 1 sec) 
*** Reached end of trace for Core: 0 Repeating trace: traces/spec2k17/srv_40.champsimtrace.xz
Heartbeat CPU 0 instructions: 40000000 cycles: 11666942 heartbeat IPC: 3.55697 cumulative IPC: 3.42849 (Simulation time: 0 hr 2 min 39 sec) 
Heartbeat CPU 0 instructions: 50000003 cycles: 14682012 heartbeat IPC: 3.31667 cumulative IPC: 3.40553 (Simulation time: 0 hr 3 min 21 sec) 

Warmup complete CPU 0 instructions: 50000003 cycles: 14682012 (Simulation time: 0 hr 3 min 21 sec) 

Offsets elements: 
Potential of Offsets elements: 
rewards of Offsets elements: 
Printing Sanity1
offset list size493
Offsets elements: 
Potential of Offsets elements: 
rewards of Offsets elements: 958 64 178 146 880 595 7824 219 1224 772 938 0 0 5577 197 841 915 989 1278 1458 516 262 496 771 1444 992 931 1298 951 1056 245 1040 1019 1062 953 542 360 0 0 0 0 0 0 1834 708 797 1612 429 778 253 817 0 0 1167 1176 217 722 1625 586 188 1043 1068 0 692 398 179 1175 1077 569 717 210 770 873 859 167 45 44 922 1013 0 0 931 983 242 1025 832 777 761 967 24 912 835 1066 681 1342 335 0 0 735 567 161 814 1853 0 1038 305 165 678 911 780 383 36 1 217 912 899 0 0 986 904 107 912 800 596 749 1500 173 523 0 0 713 84 1015 1023 1209 3363 740 1247 256 853 750 3426 1392 0 0 571 907 0 0 197 302 937 995 0 0 963 170 861 1163 957 0 0 893 0 0 597 313 868 811 340 1038 966 326 0 0 725 170 0 1112 971 5836 0 360 1081 206 54 127 75 764 0 0 357 479 739 488 0 0 788 633 1059 849 861 724 702 0 0 0 350 1117 379 365 0 0 326 681 740 1093 0 246 713 309 657 206 0 0 636 1164 367 0 0 0 0 1048 935 895 133 502 530 917 0 0 875 204 0 1145 711 580 0 0 292 609 787 0 804 253 0 1146 0 0 0 446 1060 1325 1100 0 1104 328 870 0 884 861 664 1091 722 0 0 914 0 899 0 0 0 1043 0 212 837 0 698 699 0 0 0 183 0 0 0 627 0 140 0 0 1045 0 399 1091 0 0 0 0 0 220 0 0 782 0 427 0 0 0 0 0 861 0 941 0 0 923 345 0 602 0 20 0 0 1448 240 0 0 0 465 0 0 0 0 0 0 881 0 514 0 0 0 23 0 0 613 0 0 0 0 0 0 0 0 0 0 0 0 0 0 16 0 0 687 0 0 0 0 0 0 0 0 0 0 467 0 0 0 0 0 0 0 0 0 0 0 1171 0 0 0 0 0 0 0 0 439 0 0 535 267 0 0 0 0 0 0 0 0 0 0 0 815 0 0 0 0 0 0 0 0 0 0 0 0 0 0 0 0 0 0 30 0 0 0 0 0 0 0 0 0 0 0 0 0 0 0 0 0 0 0 0 0 0 0 0 0 0 0 0 0 1888 0 0 0 0 537 0 0 0 0 0 0 0 0 0 0 0 0 0 0 0 36 0 
Printing Sanity2
Heartbeat CPU 0 instructions: 60000000 cycles: 28749359 heartbeat IPC: 0.710866 cumulative IPC: 0.710866 (Simulation time: 0 hr 4 min 13 sec) 
*** Reached end of trace for Core: 0 Repeating trace: traces/spec2k17/srv_40.champsimtrace.xz
Heartbeat CPU 0 instructions: 70000003 cycles: 44909092 heartbeat IPC: 0.618822 cumulative IPC: 0.661658 (Simulation time: 0 hr 5 min 9 sec) 
Heartbeat CPU 0 instructions: 80000001 cycles: 60461364 heartbeat IPC: 0.642993 cumulative IPC: 0.655317 (Simulation time: 0 hr 6 min 0 sec) 
Heartbeat CPU 0 instructions: 90000001 cycles: 74500945 heartbeat IPC: 0.712272 cumulative IPC: 0.668685 (Simulation time: 0 hr 6 min 51 sec) 
*** Reached end of trace for Core: 0 Repeating trace: traces/spec2k17/srv_40.champsimtrace.xz
Heartbeat CPU 0 instructions: 100000002 cycles: 90783198 heartbeat IPC: 0.614166 cumulative IPC: 0.65702 (Simulation time: 0 hr 7 min 47 sec) 
Heartbeat CPU 0 instructions: 110000000 cycles: 106101769 heartbeat IPC: 0.652802 cumulative IPC: 0.656313 (Simulation time: 0 hr 8 min 39 sec) 
Heartbeat CPU 0 instructions: 120000001 cycles: 120149851 heartbeat IPC: 0.711841 cumulative IPC: 0.663709 (Simulation time: 0 hr 9 min 34 sec) 
*** Reached end of trace for Core: 0 Repeating trace: traces/spec2k17/srv_40.champsimtrace.xz
Heartbeat CPU 0 instructions: 130000003 cycles: 136559293 heartbeat IPC: 0.609405 cumulative IPC: 0.656398 (Simulation time: 0 hr 10 min 29 sec) 
Heartbeat CPU 0 instructions: 140000003 cycles: 151749831 heartbeat IPC: 0.658305 cumulative IPC: 0.656609 (Simulation time: 0 hr 11 min 22 sec) 
Heartbeat CPU 0 instructions: 150000000 cycles: 165772936 heartbeat IPC: 0.713109 cumulative IPC: 0.661853 (Simulation time: 0 hr 12 min 15 sec) 
*** Reached end of trace for Core: 0 Repeating trace: traces/spec2k17/srv_40.champsimtrace.xz
Heartbeat CPU 0 instructions: 160000001 cycles: 182323975 heartbeat IPC: 0.604192 cumulative IPC: 0.65616 (Simulation time: 0 hr 13 min 10 sec) 
Heartbeat CPU 0 instructions: 170000000 cycles: 197371991 heartbeat IPC: 0.664539 cumulative IPC: 0.65685 (Simulation time: 0 hr 14 min 2 sec) 
Heartbeat CPU 0 instructions: 180000003 cycles: 211380178 heartbeat IPC: 0.713868 cumulative IPC: 0.660911 (Simulation time: 0 hr 14 min 55 sec) 
*** Reached end of trace for Core: 0 Repeating trace: traces/spec2k17/srv_40.champsimtrace.xz
Heartbeat CPU 0 instructions: 190000001 cycles: 228093121 heartbeat IPC: 0.598339 cumulative IPC: 0.656011 (Simulation time: 0 hr 15 min 50 sec) 
Heartbeat CPU 0 instructions: 200000002 cycles: 242977786 heartbeat IPC: 0.671832 cumulative IPC: 0.657042 (Simulation time: 0 hr 16 min 43 sec) 
Heartbeat CPU 0 instructions: 210000000 cycles: 257014693 heartbeat IPC: 0.712408 cumulative IPC: 0.660249 (Simulation time: 0 hr 17 min 35 sec) 
*** Reached end of trace for Core: 0 Repeating trace: traces/spec2k17/srv_40.champsimtrace.xz
Heartbeat CPU 0 instructions: 220000000 cycles: 273922027 heartbeat IPC: 0.591459 cumulative IPC: 0.655763 (Simulation time: 0 hr 18 min 29 sec) 
Heartbeat CPU 0 instructions: 230000000 cycles: 288574532 heartbeat IPC: 0.682477 cumulative IPC: 0.657192 (Simulation time: 0 hr 19 min 21 sec) 
Heartbeat CPU 0 instructions: 240000000 cycles: 302601647 heartbeat IPC: 0.712905 cumulative IPC: 0.659906 (Simulation time: 0 hr 20 min 11 sec) 
*** Reached end of trace for Core: 0 Repeating trace: traces/spec2k17/srv_40.champsimtrace.xz
Heartbeat CPU 0 instructions: 250000002 cycles: 319293719 heartbeat IPC: 0.599087 cumulative IPC: 0.656574 (Simulation time: 0 hr 21 min 3 sec) 
Finished CPU 0 instructions: 200000003 cycles: 304611708 cumulative IPC: 0.656574 (Simulation time: 0 hr 21 min 3 sec) 

ChampSim completed all CPUs

Region of Interest Statistics

CPU 0 cumulative IPC: 0.656574 instructions: 200000003 cycles: 304611708
ITLB TOTAL     ACCESS:   29005799  HIT:   28740308  MISS:     265491  HIT %:    99.0847  MISS %:   0.915303   MPKI: 1.32745
ITLB LOAD TRANSLATION ACCESS:   29005799  HIT:   28740308  MISS:     265491  HIT %:    99.0847  MISS %:   0.915303   MPKI: 1.32745
ITLB PREFETCH  REQUESTED:          0  ISSUED:          0  USEFUL:          0  USELESS:          0
ITLB USEFUL LOAD PREFETCHES:          0 PREFETCH ISSUED TO LOWER LEVEL:          0  ACCURACY: -nan
ITLB TIMELY PREFETCHES:          0 LATE PREFETCHES: 0 DROPPED PREFETCHES: 0
ITLB PREFETCHES SAME FILL-ORIGIN LEVEL: 0 DIFFERENT FILL-ORIGIN LEVEL: 0
ITLB AVERAGE MISS LATENCY: 11.3786 cycles
ITLB RQ	ACCESS:   37666503	FORWARD:          0	MERGED:    8566773	TO_CACHE:   29099730

DTLB TOTAL     ACCESS:   36712100  HIT:   36397574  MISS:     314526  HIT %:    99.1433  MISS %:   0.856737   MPKI: 1.57263
DTLB LOAD TRANSLATION ACCESS:   36712100  HIT:   36397574  MISS:     314526  HIT %:    99.1433  MISS %:   0.856737   MPKI: 1.57263
DTLB PREFETCH  REQUESTED:          0  ISSUED:          0  USEFUL:          0  USELESS:          0
DTLB USEFUL LOAD PREFETCHES:          0 PREFETCH ISSUED TO LOWER LEVEL:          0  ACCURACY: -nan
DTLB TIMELY PREFETCHES:          0 LATE PREFETCHES: 0 DROPPED PREFETCHES: 0
DTLB PREFETCHES SAME FILL-ORIGIN LEVEL: 0 DIFFERENT FILL-ORIGIN LEVEL: 0
DTLB AVERAGE MISS LATENCY: 22.3637 cycles
DTLB RQ	ACCESS:   54940308	FORWARD:          0	MERGED:   18125975	TO_CACHE:   36814333

STLB TOTAL     ACCESS:     622887  HIT:     575124  MISS:      47763  HIT %:     92.332  MISS %:      7.668   MPKI: 0.238815
STLB LOAD TRANSLATION ACCESS:     580017  HIT:     532296  MISS:      47721  HIT %:    91.7725  MISS %:    8.22752   MPKI: 0.238605
STLB TRANSLATION FROM L1D PREFETCHER ACCESS:      42870  HIT:      42828  MISS:         42  HIT %:     99.902  MISS %:  0.0979706   MPKI: 0.00021
STLB PREFETCH  REQUESTED:          0  ISSUED:          0  USEFUL:         42  USELESS:          0
STLB USEFUL LOAD PREFETCHES:         42 PREFETCH ISSUED TO LOWER LEVEL:          0  ACCURACY: inf
STLB TIMELY PREFETCHES:         42 LATE PREFETCHES: 0 DROPPED PREFETCHES: 0
STLB PREFETCHES SAME FILL-ORIGIN LEVEL: 0 DIFFERENT FILL-ORIGIN LEVEL: 0
STLB AVERAGE MISS LATENCY: 101.168 cycles
STLB RQ	ACCESS:     628875	FORWARD:          0	MERGED:       5988	TO_CACHE:     622887

STLB Hit, L1D data hit: 0
STLB Hit, L2C data hit: 0
STLB Hit, LLC data hit: 0
STLB Hit, LLC data miss: 0
STLB STLB hints to L2: 0
L1D TOTAL     ACCESS:   51942906  HIT:   49569185  MISS:    2373721  HIT %:    95.4301  MISS %:    4.56987   MPKI: 11.8686
L1D LOAD      ACCESS:   42966276  HIT:   41698166  MISS:    1268110  HIT %:    97.0486  MISS %:    2.95141   MPKI: 6.34055
L1D RFO       ACCESS:    8930170  HIT:    7826089  MISS:    1104081  HIT %:    87.6365  MISS %:    12.3635   MPKI: 5.5204
L1D PREFETCH  ACCESS:      46460  HIT:      44930  MISS:       1530  HIT %:    96.7068  MISS %:    3.29316   MPKI: 0.00765
AGUS PREFETCH L1 MISS: 0
L1D PREFETCH  REQUESTED:      97732  ISSUED:      97732  USEFUL:       1110  USELESS:        420
L1D USEFUL LOAD PREFETCHES:       1110 PREFETCH ISSUED TO LOWER LEVEL:       1530  ACCURACY: 72.549
L1D TIMELY PREFETCHES:       1110 LATE PREFETCHES: 0 DROPPED PREFETCHES: 0
L1D PREFETCHES SAME FILL-ORIGIN LEVEL: 1530 DIFFERENT FILL-ORIGIN LEVEL: 0
L1D AVERAGE MISS LATENCY: 213.892 cycles
L1D RQ	ACCESS:   49879684	FORWARD:          0	MERGED:    6743405	TO_CACHE:   43018575
L1D WQ	ACCESS:   12021205	FORWARD:     117704	MERGED:      99472	TO_CACHE:   11921733
L1D PQ	ACCESS:      48874	FORWARD:          0	MERGED:         16	TO_CACHE:      48858

L1D UNIQUE REGIONS ACCESSED: 0
L1D REGIONS CONFLICTS: 0
L1D Cross Page Prefetch Requests: 24137
L1D Same Page Prefetch Requests: 24737
L1D ROI Sum of L1D PQ occupancy: 626141
L1D PREFETCHES PUSHED FROM L2C: 0
L1I TOTAL     ACCESS:   37325563  HIT:   36057141  MISS:    1268422  HIT %:    96.6017  MISS %:    3.39827   MPKI: 6.34211
L1I LOAD      ACCESS:   37325563  HIT:   36057141  MISS:    1268422  HIT %:    96.6017  MISS %:    3.39827   MPKI: 6.34211
L1I PREFETCH  REQUESTED:          0  ISSUED:          0  USEFUL:          0  USELESS:          0
L1I USEFUL LOAD PREFETCHES:          0 PREFETCH ISSUED TO LOWER LEVEL:          0  ACCURACY: -nan
L1I TIMELY PREFETCHES:          0 LATE PREFETCHES: 0 DROPPED PREFETCHES: 0
L1I PREFETCHES SAME FILL-ORIGIN LEVEL: 0 DIFFERENT FILL-ORIGIN LEVEL: 0
L1I AVERAGE MISS LATENCY: 26.8019 cycles
L1I RQ	ACCESS:   53215685	FORWARD:          0	MERGED:   15549182	TO_CACHE:   37666503

BTB TOTAL     ACCESS:   13141795  HIT:   12087746  MISS:    1054049  HIT %:    91.9794  MISS %:    8.02059   MPKI: 5.27024
BTB BRANCH_DIRECT_JUMP	ACCESS:    1417010  HIT:    1361698  MISS:      55312
BTB BRANCH_INDIRECT	ACCESS:    4725375  HIT:    4385112  MISS:     340263
BTB BRANCH_CONDITIONAL	ACCESS:    4838902  HIT:    4776127  MISS:      62775
BTB BRANCH_DIRECT_CALL	ACCESS:     958453  HIT:     856614  MISS:     101839
BTB BRANCH_INDIRECT_CALL	ACCESS:     121813  HIT:      97196  MISS:      24617
BTB BRANCH_RETURN	ACCESS:    1080242  HIT:     610999  MISS:     469243
BTB BRANCH_OTHER ACCESS:          0  HIT:          0  MISS:          0

L2C TOTAL     ACCESS:    4991383  HIT:    3135977  MISS:    1855406  HIT %:    62.8278  MISS %:    37.1722   MPKI: 9.27703
L2C LOAD      ACCESS:    2536529  HIT:    1696778  MISS:     839751  HIT %:    66.8937  MISS %:    33.1063   MPKI: 4.19875
L2C DATA LOAD MPKI: 3.04182
L2C INSTRUCTION LOAD MPKI: 1.15693
L2C RFO       ACCESS:    1104050  HIT:     130244  MISS:     973806  HIT %:    11.7969  MISS %:    88.2031   MPKI: 4.86903
L2C PREFETCH  ACCESS:       1530  HIT:        186  MISS:       1344  HIT %:    12.1569  MISS %:    87.8431   MPKI: 0.00672
AGUS PREFETCH L1 MISS: 0
L2C DATA PREFETCH MPKI: 0.00672
L2C INSTRUCTION PREFETCH MPKI: 0
L2C WRITEBACK ACCESS:    1288938  HIT:    1271215  MISS:      17723  HIT %:     98.625  MISS %:    1.37501   MPKI: 0.088615
L2C LOAD TRANSLATION ACCESS:      60294  HIT:      37536  MISS:      22758  HIT %:     62.255  MISS %:     37.745   MPKI: 0.11379
L2C TRANSLATION FROM L1D PREFETCHER ACCESS:         42  HIT:         18  MISS:         24  HIT %:    42.8571  MISS %:    57.1429   MPKI: 0.00012
L2C PREFETCH  REQUESTED:          0  ISSUED:          0  USEFUL:        432  USELESS:        936
L2C USEFUL LOAD PREFETCHES:        432 PREFETCH ISSUED TO LOWER LEVEL:       1344  ACCURACY: 32.1429
L2C TIMELY PREFETCHES:        432 LATE PREFETCHES: 0 DROPPED PREFETCHES: 0
L2C PREFETCHES SAME FILL-ORIGIN LEVEL: 0 DIFFERENT FILL-ORIGIN LEVEL: 0
L2C AVERAGE MISS LATENCY: 265.052 cycles
L2C RQ	ACCESS:    3700949	FORWARD:          0	MERGED:          0	TO_CACHE:    3700915
L2C WQ	ACCESS:    1288938	FORWARD:         34	MERGED:          0	TO_CACHE:    1288938
L2C PQ	ACCESS:       1530	FORWARD:          0	MERGED:          0	TO_CACHE:       1530

L2C Instructions Evicting Data 126003
L2C Translations Evicting Data 15264
L2C Data Evicting Data 1450542
L2C Instructions Evicting Instructions 97734
L2C Translations Evicting Instructions 6853
L2C Data Evicting Instructions 119139
L2C Instructions Evicting Translations 7650
L2C Translations Evicting Translations 665
L2C Data Evicting Translations 13833
L2C Dense regions hint from L2: 0
PSCL5 TOTAL     ACCESS:      47763  HIT:      47763  MISS:          0  HIT %:        100  MISS %:          0   MPKI: 0
PSCL5 LOAD TRANSLATION ACCESS:      47721  HIT:      47721  MISS:          0  HIT %:        100  MISS %:          0   MPKI: 0
PSCL5 TRANSLATION FROM L1D PREFETCHER ACCESS:         42  HIT:         42  MISS:          0  HIT %:        100  MISS %:          0   MPKI: 0
PSCL5 PREFETCH  REQUESTED:          0  ISSUED:          0  USEFUL:          0  USELESS:          0
PSCL5 USEFUL LOAD PREFETCHES:          0 PREFETCH ISSUED TO LOWER LEVEL:          0  ACCURACY: -nan
PSCL5 TIMELY PREFETCHES:          0 LATE PREFETCHES: 0 DROPPED PREFETCHES: 0
PSCL5 PREFETCHES SAME FILL-ORIGIN LEVEL: 0 DIFFERENT FILL-ORIGIN LEVEL: 0

PSCL4 TOTAL     ACCESS:      47508  HIT:      47383  MISS:        125  HIT %:    99.7369  MISS %:   0.263114   MPKI: 0.000625
PSCL4 LOAD TRANSLATION ACCESS:      47466  HIT:      47341  MISS:        125  HIT %:    99.7367  MISS %:   0.263346   MPKI: 0.000625
PSCL4 TRANSLATION FROM L1D PREFETCHER ACCESS:         42  HIT:         42  MISS:          0  HIT %:        100  MISS %:          0   MPKI: 0
PSCL4 PREFETCH  REQUESTED:          0  ISSUED:          0  USEFUL:          0  USELESS:          0
PSCL4 USEFUL LOAD PREFETCHES:          0 PREFETCH ISSUED TO LOWER LEVEL:          0  ACCURACY: -nan
PSCL4 TIMELY PREFETCHES:          0 LATE PREFETCHES: 0 DROPPED PREFETCHES: 0
PSCL4 PREFETCHES SAME FILL-ORIGIN LEVEL: 0 DIFFERENT FILL-ORIGIN LEVEL: 0

PSCL3 TOTAL     ACCESS:      39915  HIT:      36555  MISS:       3360  HIT %:    91.5821  MISS %:    8.41789   MPKI: 0.0168
PSCL3 LOAD TRANSLATION ACCESS:      39873  HIT:      36513  MISS:       3360  HIT %:    91.5732  MISS %:    8.42675   MPKI: 0.0168
PSCL3 TRANSLATION FROM L1D PREFETCHER ACCESS:         42  HIT:         42  MISS:          0  HIT %:        100  MISS %:          0   MPKI: 0
PSCL3 PREFETCH  REQUESTED:          0  ISSUED:          0  USEFUL:          0  USELESS:          0
PSCL3 USEFUL LOAD PREFETCHES:          0 PREFETCH ISSUED TO LOWER LEVEL:          0  ACCURACY: -nan
PSCL3 TIMELY PREFETCHES:          0 LATE PREFETCHES: 0 DROPPED PREFETCHES: 0
PSCL3 PREFETCHES SAME FILL-ORIGIN LEVEL: 0 DIFFERENT FILL-ORIGIN LEVEL: 0

PSCL2 TOTAL     ACCESS:      47763  HIT:      38675  MISS:       9088  HIT %:    80.9727  MISS %:    19.0273   MPKI: 0.04544
PSCL2 LOAD TRANSLATION ACCESS:      47721  HIT:      38633  MISS:       9088  HIT %:     80.956  MISS %:     19.044   MPKI: 0.04544
PSCL2 TRANSLATION FROM L1D PREFETCHER ACCESS:         42  HIT:         42  MISS:          0  HIT %:        100  MISS %:          0   MPKI: 0
PSCL2 PREFETCH  REQUESTED:          0  ISSUED:          0  USEFUL:          0  USELESS:          0
PSCL2 USEFUL LOAD PREFETCHES:          0 PREFETCH ISSUED TO LOWER LEVEL:          0  ACCURACY: -nan
PSCL2 TIMELY PREFETCHES:          0 LATE PREFETCHES: 0 DROPPED PREFETCHES: 0
PSCL2 PREFETCHES SAME FILL-ORIGIN LEVEL: 0 DIFFERENT FILL-ORIGIN LEVEL: 0

LLC TOTAL     ACCESS:    2874327  HIT:    1289626  MISS:    1584701  HIT %:    44.8671  MISS %:    55.1329   MPKI: 7.9235
LLC LOAD      ACCESS:     839751  HIT:     243423  MISS:     596328  HIT %:    28.9875  MISS %:    71.0125   MPKI: 2.98164
LLC RFO       ACCESS:     973806  HIT:      20301  MISS:     953505  HIT %:    2.08471  MISS %:    97.9153   MPKI: 4.76752
LLC PREFETCH  ACCESS:       1344  HIT:          0  MISS:       1344  HIT %:          0  MISS %:        100   MPKI: 0.00672
AGUS PREFETCH L1 MISS: 0
LLC WRITEBACK ACCESS:    1036644  HIT:    1017111  MISS:      19533  HIT %:    98.1157  MISS %:    1.88425   MPKI: 0.097665
LLC LOAD TRANSLATION ACCESS:      22758  HIT:       8791  MISS:      13967  HIT %:    38.6282  MISS %:    61.3718   MPKI: 0.069835
LLC TRANSLATION FROM L1D PREFETCHER ACCESS:         24  HIT:          0  MISS:         24  HIT %:          0  MISS %:        100   MPKI: 0.00012
LLC PREFETCH  REQUESTED:          0  ISSUED:          0  USEFUL:         12  USELESS:       1356
LLC USEFUL LOAD PREFETCHES:         12 PREFETCH ISSUED TO LOWER LEVEL:       1344  ACCURACY: 0.892857
LLC TIMELY PREFETCHES:         12 LATE PREFETCHES: 0 DROPPED PREFETCHES: 0
LLC PREFETCHES SAME FILL-ORIGIN LEVEL: 0 DIFFERENT FILL-ORIGIN LEVEL: 0
LLC AVERAGE MISS LATENCY: 275.54 cycles
LLC RQ	ACCESS:    1836339	FORWARD:          0	MERGED:          0	TO_CACHE:    1836339
LLC WQ	ACCESS:    1036644	FORWARD:          0	MERGED:          0	TO_CACHE:    1036644
LLC PQ	ACCESS:       1344	FORWARD:          0	MERGED:          0	TO_CACHE:       1344

LLC Dense regions hint to LLC: 0

RAW hits: 918790
Loads Generated: 50798474
Loads sent to L1D: 49879684
Stores Generated: 12021212
Stores sent to L1D: 12021205
Major fault: 0 Minor fault: 6461
Allocated PAGES: 6461
ucb ended
-----------------------------------------------------------------------------------------------------------------------------------------------------------------------------------------------------
Offsets elements: 17 -33 -16 69 10 -79 16 110 -35 -26 47 1465921638753 -1465921638806 -32 122 -40 -34 46 -29 -49 92 -124 88 57 -37 -52 -38 31 -10 -53 123 -24 -51 29 58 -90 124 1465921638699 -1465921638754 1465921638790 -1465921638715 1465921638751 -1465921638791 -17 -41 39 13 -84 85 -117 72 1465921638775 -1465921638730 -31 -46 120 38 15 -85 114 -47 -18 -1465921638738 23 -92 113 -65 21 -83 81 -113 71 -23 44 5 -81 116 -67 19 1465921638757 -1465921638727 -20 -61 119 -71 20 27 -39 4 126 -45 53 -27 -58 33 -94 1465921638779 -1465921638743 12 -77 112 -57 -1 -1465921638731 -50 90 -122 84 -36 -64 -19 -73 111 -63 24 -6 1465921638777 -1465921638736 18 -75 118 -44 55 93 89 -13 115 -99 1465921638809 -1465921638721 -56 121 -43 -30 50 -48 -91 80 -112 73 -25 48 43 1465921638825 -1465921638793 -87 -21 1465921638778 -1465921638741 -68 -54 42 -78 1465921638763 -1465921638749 9 117 -69 -14 -74 1465921638810 -1465921638722 36 -1465921638811 -1465921638826 77 -121 87 65 107 -55 52 -108 1465921638814 -1465921638734 -42 -111 1465921638811 76 -86 32 1465921638795 -96 -66 60 -28 -105 125 40 1465921638812 -1465921638728 -100 94 -62 86 1465921638780 -1465921638732 -82 -107 34 51 -80 28 -22 1465921638781 -1465921638813 -1465921638828 -114 45 -104 -101 1465921638813 -1465921638723 -106 62 -76 14 1465921638797 -109 -15 103 75 79 1465921638817 -1465921638725 67 -2 -95 -1465921638726 1465921638783 -1465921638815 -1465921638830 -8 35 11 -110 -93 -60 -9 1465921638815 -1465921638733 8 -115 -1465921638724 26 -88 91 1465921638799 -1465921638753 -97 -98 78 1465921638816 -12 -118 1465921638784 37 -1465921638735 -1465921638768 -1465921638755 -103 56 49 54 -1465921638752 25 -102 68 1465921638820 -72 30 41 -11 -70 1465921638818 -1465921638739 6 1465921638786 -59 1465921638787 -1465921638819 -1465921638834 61 1465921638819 -119 63 1465921638803 74 82 1465921638788 -1465921638740 -1465921638757 127 1465921638792 -1465921638810 -1465921638839 1 1465921638821 -116 1465921638805 -1465921638759 70 1465921638822 99 7 1465921638791 -1465921638823 -1465921638838 1465921638823 -1465921638760 -123 -1465921638737 1465921638808 59 1465921638827 101 1465921638824 -1465921638756 1465921638793 -1465921638825 -1465921638841 66 -1465921638744 22 -1465921638748 1465921638826 83 105 1465921638794 -89 -1465921638742 64 1465921638830 -1465921638746 -3 109 -1465921638745 1465921638828 -1465921638844 98 1465921638796 -1465921638829 1465921638829 -1465921638766 1465921638798 -1465921638751 -4 1465921638833 106 -1465921638846 1465921638831 -1465921638770 -125 -1465921638762 1465921638832 95 1465921638800 1465921638801 -1465921638833 -1465921638848 1465921638834 1465921638802 -1465921638750 -1465921638835 -1465921638850 1465921638835 1465921638836 1465921638804 -1465921638775 1465921638837 -126 -1465921638767 1465921638838 102 1465921638806 1465921638807 -1465921638855 1465921638839 -1465921638765 1465921638843 1465921638840 -1465921638856 1465921638841 1465921638842 104 -1465921638780 -1465921638843 -1465921638858 1465921638846 -1465921638772 -1465921638758 1465921638844 -1465921638845 -1465921638860 1465921638845 -1465921638761 -5 1465921638849 1465921638850 -1465921638776 1465921638847 -1465921638774 -1465921638764 -1465921638777 1465921638848 2 -1465921638849 -1465921638864 97 -120 -1465921638769 -1465921638779 -1465921638851 -1465921638866 1465921638851 -1465921638788 -1465921638790 1465921638852 -1465921638763 -1465921638853 -1465921638869 -7 -1465921638786 1465921638853 1465921638854 -1465921638870 1465921638855 -1465921638792 1465921638859 1465921638856 -1465921638771 -1465921638857 1465921638857 1465921638858 -1465921638859 -1465921638874 -1465921638797 1465921638862 1465921638860 -1465921638782 108 -1465921638781 -1465921638861 -1465921638876 1465921638861 -1465921638787 -1465921638783 -1465921638794 -1465921638784 -1465921638789 1465921638865 -1465921638875 1465921638863 -1465921638773 1465921638864 -1465921638865 -1465921638880 -1465921638796 -1465921638799 1465921638866 -1465921638778 -1465921638867 -1465921638882 1465921638867 1465921638868 -1465921638795 -1465921638884 1465921638872 1465921638873 -1465921638889 3 1465921638874 1465921638875 -1465921638891 1465921638876 100 1465921638877 -1465921638785 -1465921638878 -1465921638893 1465921638878 -1465921638814 -1465921638809 1465921638879 -1465921638798 1465921638880 -1465921638807 -1465921638800 -1465921638805 1465921638881 -1465921638897 -127 1465921638882 
Potential of Offsets elements: 986.575 92.5749 206.575 174.575 908.575 623.575 0.396111 247.575 1252.57 800.575 966.575 28.5749 28.5749 5605.57 225.575 869.575 943.575 1017.57 1306.57 1486.57 544.575 290.575 524.575 799.575 1472.57 1020.57 959.575 1326.57 979.575 1084.57 273.575 1068.57 1047.57 1090.57 981.575 570.575 388.575 28.5749 28.5749 28.5749 28.5749 28.5749 28.5749 1862.57 736.575 825.575 1640.57 457.575 806.575 281.575 845.575 28.5749 28.5749 1195.57 1204.57 245.575 750.575 1653.57 614.575 216.575 1071.57 1096.57 28.5749 720.575 426.575 207.575 1203.57 1105.57 597.575 745.575 238.575 798.575 901.575 887.575 195.575 73.5749 72.5749 950.575 1041.57 28.5749 28.5749 959.575 1011.57 270.575 1053.57 860.575 805.575 789.575 995.575 52.5749 940.575 863.575 1094.57 709.575 1370.57 363.575 28.5749 28.5749 763.575 595.575 189.575 842.575 1881.57 28.5749 1066.57 333.575 193.575 706.575 939.575 808.575 411.575 64.5749 29.5749 245.575 940.575 927.575 28.5749 28.5749 1014.57 932.575 135.575 940.575 828.575 624.575 777.575 1528.57 201.575 551.575 28.5749 28.5749 741.575 112.575 1043.57 1051.57 1237.57 3391.57 768.575 1275.57 284.575 881.575 778.575 3454.57 1420.57 28.5749 28.5749 599.575 935.575 28.5749 28.5749 225.575 330.575 965.575 1023.57 28.5749 28.5749 991.575 198.575 889.575 1191.57 985.575 28.5749 28.5749 921.575 28.5749 28.5749 625.575 341.575 896.575 839.575 368.575 1066.57 994.575 354.575 28.5749 28.5749 753.575 198.575 28.5749 1140.57 999.575 5836.1 28.5749 388.575 1109.57 234.575 82.5749 155.575 103.575 792.575 28.5749 28.5749 385.575 507.575 767.575 516.575 28.5749 28.5749 816.575 661.575 1087.57 877.575 889.575 752.575 730.575 28.5749 28.5749 28.5749 378.575 1145.57 407.575 393.575 28.5749 28.5749 354.575 709.575 768.575 1121.57 28.5749 274.575 741.575 337.575 685.575 234.575 28.5749 28.5749 664.575 1192.57 395.575 28.5749 28.5749 28.5749 28.5749 1076.57 963.575 923.575 161.575 530.575 558.575 945.575 28.5749 28.5749 903.575 232.575 28.5749 1173.57 739.575 608.575 28.5749 28.5749 320.575 637.575 815.575 28.5749 832.575 281.575 28.5749 1174.57 28.5749 28.5749 28.5749 474.575 1088.57 1353.57 1128.57 28.5749 1132.57 356.575 898.575 28.5749 912.575 889.575 692.575 1119.57 750.575 28.5749 28.5749 942.575 28.5749 927.575 28.5749 28.5749 28.5749 1071.57 28.5749 240.575 865.575 28.5749 726.575 727.575 28.5749 28.5749 28.5749 211.575 28.5749 28.5749 28.5749 655.575 28.5749 168.575 28.5749 28.5749 1073.57 28.5749 427.575 1119.57 28.5749 28.5749 28.5749 28.5749 28.5749 248.575 28.5749 28.5749 810.575 28.5749 455.575 28.5749 28.5749 28.5749 28.5749 28.5749 889.575 28.5749 969.575 28.5749 28.5749 951.575 373.575 28.5749 630.575 28.5749 48.5749 28.5749 28.5749 1476.57 268.575 28.5749 28.5749 28.5749 493.575 28.5749 28.5749 28.5749 28.5749 28.5749 28.5749 909.575 28.5749 542.575 28.5749 28.5749 28.5749 51.5749 28.5749 28.5749 641.575 28.5749 28.5749 28.5749 28.5749 28.5749 28.5749 28.5749 28.5749 28.5749 28.5749 28.5749 28.5749 28.5749 28.5749 44.5749 28.5749 28.5749 715.575 28.5749 28.5749 28.5749 28.5749 28.5749 28.5749 28.5749 28.5749 28.5749 28.5749 495.575 28.5749 28.5749 28.5749 28.5749 28.5749 28.5749 28.5749 28.5749 28.5749 28.5749 28.5749 1199.57 28.5749 28.5749 28.5749 28.5749 28.5749 28.5749 28.5749 28.5749 467.575 28.5749 28.5749 563.575 295.575 28.5749 28.5749 28.5749 28.5749 28.5749 28.5749 28.5749 28.5749 28.5749 28.5749 28.5749 843.575 28.5749 28.5749 28.5749 28.5749 28.5749 28.5749 28.5749 28.5749 28.5749 28.5749 28.5749 28.5749 28.5749 28.5749 28.5749 28.5749 28.5749 28.5749 58.5749 28.5749 28.5749 28.5749 28.5749 28.5749 28.5749 28.5749 28.5749 28.5749 28.5749 28.5749 28.5749 28.5749 28.5749 28.5749 28.5749 28.5749 28.5749 28.5749 28.5749 28.5749 28.5749 28.5749 28.5749 28.5749 28.5749 28.5749 28.5749 28.5749 1916.57 28.5749 28.5749 28.5749 28.5749 565.575 28.5749 28.5749 28.5749 28.5749 28.5749 28.5749 28.5749 28.5749 28.5749 28.5749 28.5749 28.5749 28.5749 28.5749 28.5749 64.5749 28.5749 
rewards of Offsets elements: 958 64 178 146 880 595 0 219 1224 772 938 0 0 5577 197 841 915 989 1278 1458 516 262 496 771 1444 992 931 1298 951 1056 245 1040 1019 1062 953 542 360 0 0 0 0 0 0 1834 708 797 1612 429 778 253 817 0 0 1167 1176 217 722 1625 586 188 1043 1068 0 692 398 179 1175 1077 569 717 210 770 873 859 167 45 44 922 1013 0 0 931 983 242 1025 832 777 761 967 24 912 835 1066 681 1342 335 0 0 735 567 161 814 1853 0 1038 305 165 678 911 780 383 36 1 217 912 899 0 0 986 904 107 912 800 596 749 1500 173 523 0 0 713 84 1015 1023 1209 3363 740 1247 256 853 750 3426 1392 0 0 571 907 0 0 197 302 937 995 0 0 963 170 861 1163 957 0 0 893 0 0 597 313 868 811 340 1038 966 326 0 0 725 170 0 1112 971 5836 0 360 1081 206 54 127 75 764 0 0 357 479 739 488 0 0 788 633 1059 849 861 724 702 0 0 0 350 1117 379 365 0 0 326 681 740 1093 0 246 713 309 657 206 0 0 636 1164 367 0 0 0 0 1048 935 895 133 502 530 917 0 0 875 204 0 1145 711 580 0 0 292 609 787 0 804 253 0 1146 0 0 0 446 1060 1325 1100 0 1104 328 870 0 884 861 664 1091 722 0 0 914 0 899 0 0 0 1043 0 212 837 0 698 699 0 0 0 183 0 0 0 627 0 140 0 0 1045 0 399 1091 0 0 0 0 0 220 0 0 782 0 427 0 0 0 0 0 861 0 941 0 0 923 345 0 602 0 20 0 0 1448 240 0 0 0 465 0 0 0 0 0 0 881 0 514 0 0 0 23 0 0 613 0 0 0 0 0 0 0 0 0 0 0 0 0 0 16 0 0 687 0 0 0 0 0 0 0 0 0 0 467 0 0 0 0 0 0 0 0 0 0 0 1171 0 0 0 0 0 0 0 0 439 0 0 535 267 0 0 0 0 0 0 0 0 0 0 0 815 0 0 0 0 0 0 0 0 0 0 0 0 0 0 0 0 0 0 30 0 0 0 0 0 0 0 0 0 0 0 0 0 0 0 0 0 0 0 0 0 0 0 0 0 0 0 0 0 1888 0 0 0 0 537 0 0 0 0 0 0 0 0 0 0 0 0 0 0 0 36 0 Printing Sanity3
offset_index value493
offset list size493
reward size493
potential size493
-----------------------------------------------------------------------------------------------------------------------------------------------------------------------------------------------------

DRAM Statistics
 CHANNEL 0
 RQ ROW_BUFFER_HIT:     496368  ROW_BUFFER_MISS:    1068800
 DBUS_CONGESTED:        455
 WQ ROW_BUFFER_HIT:     175593  ROW_BUFFER_MISS:     828924  FULL:          0

 AVG_CONGESTED_CYCLE: 3
 All warmup complete: 2
Channel 0 Bank busy for read cycles: 0
Channel 0 Bank busy for write cycles: 0
Channel 0
Rank 0
0banks busy for read cycles: 224014608
0banks busy for write cycles: 49073
1banks busy for read cycles: 17645621
1banks busy for write cycles: 7561671
2banks busy for read cycles: 6024050
2banks busy for write cycles: 3210825
3banks busy for read cycles: 1437294
3banks busy for write cycles: 1813959
4banks busy for read cycles: 1890026
4banks busy for write cycles: 1130123
5banks busy for read cycles: 739932
5banks busy for write cycles: 784300
6banks busy for read cycles: 1153319
6banks busy for write cycles: 685472
7banks busy for read cycles: 1743504
7banks busy for write cycles: 1533322
8banks busy for read cycles: 15338511
8banks busy for write cycles: 17856099

CPU 0 Branch Prediction Accuracy: 99.6381% MPKI: 0.27243 Average ROB Occupancy at Mispredict: 49.4882
Branch types
NOT_BRANCH: 184943667 92.4718%
BRANCH_DIRECT_JUMP: 1417010 0.708505%
BRANCH_INDIRECT: 4725375 2.36269%
BRANCH_CONDITIONAL: 6753211 3.37661%
BRANCH_DIRECT_CALL: 958453 0.479226%
BRANCH_INDIRECT_CALL: 121813 0.0609065%
BRANCH_RETURN: 1080242 0.540121%
BRANCH_OTHER: 0 0%

DRAM PAGES: 1048576
Allocated PAGES: 6461
