
*** ChampSim Multicore Out-of-Order Simulator ***

Warmup Instructions: 50000000
Simulation Instructions: 200000000
Number of CPUs: 1
LLC sets: 2048
LLC ways: 16
Off-chip DRAM Size: 4096 MB Channels: 1 Width: 64-bit Data Rate: 6400 MT/s
CPU 0 runs traces/spec2k17/srv_37.champsimtrace.xz
.xz
BTB has LRU replacement policy
ITLB has LRU replacement policy
DTLB has LRU replacement policy
STLB has LRU replacement policy
L1I has LRU replacement policy
L1D has LRU replacement policy
Initialize SRRIP state for L2C
Initialize DRRIP state for LLC
Heartbeat CPU 0 instructions: 10000003 cycles: 2944549 heartbeat IPC: 3.39611 cumulative IPC: 3.39611 (Simulation time: 0 hr 0 min 42 sec) 
Heartbeat CPU 0 instructions: 20000003 cycles: 5878901 heartbeat IPC: 3.40791 cumulative IPC: 3.402 (Simulation time: 0 hr 1 min 24 sec) 
Heartbeat CPU 0 instructions: 30000000 cycles: 8819288 heartbeat IPC: 3.40091 cumulative IPC: 3.40164 (Simulation time: 0 hr 2 min 3 sec) 
*** Reached end of trace for Core: 0 Repeating trace: traces/spec2k17/srv_37.champsimtrace.xz
Heartbeat CPU 0 instructions: 40000001 cycles: 11762472 heartbeat IPC: 3.39768 cumulative IPC: 3.40065 (Simulation time: 0 hr 2 min 47 sec) 
Heartbeat CPU 0 instructions: 50000000 cycles: 14697720 heartbeat IPC: 3.40687 cumulative IPC: 3.40189 (Simulation time: 0 hr 3 min 29 sec) 

Warmup complete CPU 0 instructions: 50000004 cycles: 14697721 (Simulation time: 0 hr 3 min 29 sec) 

Offsets elements: 
Potential of Offsets elements: 
rewards of Offsets elements: 
Printing Sanity1
offset list size2061
Offsets elements: 
Potential of Offsets elements: 
rewards of Offsets elements: 0 0 0 2 2 3 0 1222 1227 0 0 652 0 0 0 0 0 0 0 0 685 0 0 0 0 582 0 339 0 0 0 0 0 0 0 0 0 1 0 0 0 1 0 0 6 1 0 5 0 0 0 0 0 437 452 0 0 0 0 0 0 0 0 0 376 0 0 0 24 0 0 331 157 384 0 0 0 528 0 0 394 304 0 0 0 0 0 0 0 0 0 0 0 0 11 3 0 0 0 8 0 0 0 0 0 0 24 0 0 8 0 0 24 716 0 3 0 1148 0 0 0 0 0 1 0 0 0 0 0 0 0 0 0 0 0 18 0 0 12 0 0 4 0 0 12 0 0 10 0 0 6 0 0 6 0 0 1 0 2 0 0 0 0 0 1 0 0 13 0 0 4 0 0 0 0 0 0 0 0 0 0 0 0 0 0 0 1 334 0 0 0 0 0 0 0 0 0 0 0 0 0 0 2 0 0 505 44 0 0 61 0 0 0 0 0 0 0 0 0 0 0 0 0 39 267 0 0 0 0 0 459 0 0 0 206 0 0 0 0 0 0 0 0 0 0 0 0 0 0 0 0 0 0 0 0 0 0 0 0 0 0 0 0 0 0 0 0 0 0 0 0 0 0 0 0 0 0 0 50 0 0 0 382 20 9 80 0 0 0 0 0 0 0 0 469 0 0 0 171 603 0 0 0 0 0 20 0 0 0 0 0 0 0 0 0 0 0 0 0 0 16 0 0 0 0 0 0 0 0 0 0 0 0 0 0 0 0 0 0 0 0 0 0 0 0 0 0 294 0 0 0 0 0 268 0 0 0 0 0 2 15 0 0 0 0 0 0 0 0 0 0 0 202 0 0 0 0 0 0 0 0 0 0 0 0 0 0 0 0 274 0 0 0 0 0 0 0 0 0 0 0 0 0 0 0 0 0 0 0 0 0 0 0 0 0 0 0 0 0 0 0 0 0 0 0 0 0 0 0 0 0 0 0 0 0 0 0 0 0 0 0 0 0 0 0 0 0 0 0 0 0 0 0 0 0 0 0 0 1166 60 18 0 0 0 2 52 0 6 50 4 8 0 0 0 0 0 0 0 0 40 0 0 0 16 2 0 0 0 4 0 0 76 0 0 104 12 0 0 6 6 0 0 4 36 0 0 0 0 0 38 0 0 4 0 0 3 15 0 0 0 0 0 0 0 0 0 195 0 0 0 0 0 6 0 0 23 0 0 16 0 0 0 0 0 0 0 0 0 3 0 0 0 0 0 0 0 0 0 0 0 2 1 0 0 0 0 0 0 0 0 0 0 0 0 0 0 0 0 0 0 0 0 0 0 0 0 4 0 4 0 0 0 0 0 0 0 0 0 0 0 0 0 0 0 0 0 0 0 0 0 0 0 0 0 0 0 0 0 0 0 0 0 0 0 0 0 0 0 0 0 0 0 0 0 0 0 0 0 0 0 0 0 0 0 0 0 0 0 7 0 0 46 0 0 28 0 0 0 0 6 1 0 0 0 0 0 0 0 0 21 0 0 0 0 0 0 0 0 0 0 0 0 0 0 0 0 0 0 35 0 0 0 0 0 0 0 0 0 0 0 0 32 0 0 0 0 0 0 0 0 0 0 0 0 0 0 0 0 8 0 0 0 0 0 0 0 0 667 0 0 0 0 0 0 0 0 0 0 0 0 0 105 0 0 0 0 0 44 0 0 0 0 61 0 0 0 0 0 0 0 0 0 0 0 0 0 0 0 0 0 0 0 0 0 0 0 0 0 0 0 0 0 0 0 0 0 0 0 0 0 0 0 0 0 0 0 0 0 265 0 0 0 0 0 0 0 0 0 0 0 0 0 0 0 0 0 0 0 0 0 0 280 0 0 0 0 0 0 0 0 0 488 0 0 0 0 48 0 0 0 0 0 0 0 0 0 0 0 0 0 0 0 0 27 0 111 60 0 0 0 0 0 0 0 0 0 14 0 14 0 0 0 0 0 0 0 0 0 0 0 0 0 0 0 0 0 0 0 0 0 0 0 0 0 0 0 0 0 0 0 0 0 0 12 0 0 0 0 0 0 0 0 0 90 171 36 0 12 22 8 0 0 0 0 0 0 8 0 1 0 0 0 0 0 0 0 0 0 0 0 0 0 0 0 0 0 0 8 0 0 0 0 0 0 0 0 126 0 0 0 0 0 0 0 0 0 0 53 0 0 0 0 0 406 0 0 0 0 0 0 0 0 0 0 0 0 0 0 0 0 0 0 0 0 4 0 0 0 2 0 0 0 38 0 451 0 0 0 0 0 0 0 0 0 0 0 0 0 0 0 0 353 0 0 0 0 0 0 0 0 0 0 0 0 0 0 0 0 0 0 0 0 0 0 0 0 0 0 0 0 0 0 0 0 0 0 0 48 0 0 0 0 0 0 0 0 0 0 0 0 0 0 0 0 0 0 0 0 0 7 0 0 0 0 0 0 0 0 0 0 0 0 0 46 0 0 0 0 0 28 0 0 0 0 0 0 0 0 0 0 0 0 0 0 0 0 0 0 0 0 0 0 0 0 0 0 0 0 0 0 0 0 5 0 0 0 0 0 0 0 0 0 0 0 0 0 0 0 0 0 0 0 0 0 0 0 0 0 0 0 0 0 0 0 0 0 0 0 0 0 1 0 0 0 0 0 0 0 0 0 0 0 0 0 0 0 0 0 0 0 0 0 0 0 0 0 0 9 0 0 0 0 0 0 0 0 0 0 0 0 0 0 0 0 0 0 0 0 0 0 1 20 3 25 2 0 0 0 1 0 0 0 0 0 0 0 0 0 0 0 0 0 0 0 0 0 0 0 0 0 18 0 0 31 0 0 0 0 0 6 0 0 0 0 0 0 0 0 0 9 0 0 0 0 0 0 6 0 0 0 0 0 0 13 0 0 0 0 0 0 0 0 0 0 0 0 0 0 0 0 0 0 0 0 0 0 503 0 0 0 0 0 0 135 0 0 0 0 0 0 0 0 0 0 0 0 0 0 0 0 0 0 0 0 0 0 0 0 0 0 0 0 0 0 0 0 0 0 0 0 0 0 0 0 0 0 0 0 0 264 0 0 0 0 0 0 0 7 0 0 0 0 0 0 0 0 0 0 0 0 0 0 0 26 0 0 0 0 0 0 0 0 0 0 0 0 0 0 0 0 0 0 0 8 0 0 0 0 0 0 0 3 0 0 0 0 0 0 0 0 0 0 0 0 0 0 0 0 0 0 0 0 0 0 0 0 0 0 0 0 0 0 0 0 0 0 0 0 0 0 0 0 15 0 0 0 0 0 0 0 0 0 0 0 363 0 0 0 0 0 0 0 0 0 0 0 0 0 0 0 0 0 0 0 0 0 0 0 0 0 0 0 0 4 0 0 0 0 0 0 0 0 0 0 0 0 0 0 0 0 0 0 0 0 0 0 0 0 0 0 0 0 0 0 0 0 0 0 0 0 0 0 0 4 0 0 0 0 0 0 0 0 0 0 0 0 0 0 0 0 0 0 0 0 0 0 0 0 0 0 0 0 0 0 0 0 0 0 0 0 0 0 0 0 0 0 1 0 0 0 0 10 0 0 12 0 0 10 0 0 2 0 0 0 0 0 3 0 0 17 0 0 0 0 0 0 0 6 0 0 0 2 0 0 0 0 0 15 0 0 3 0 0 0 0 6 0 0 0 0 0 0 0 0 0 0 0 0 0 8 0 0 0 0 0 0 0 5 0 0 0 0 0 0 0 0 0 0 409 0 0 0 0 0 0 0 5 0 0 0 0 0 0 0 0 0 0 489 0 0 0 0 0 0 0 0 0 0 0 0 0 0 0 0 0 0 0 0 0 0 0 0 0 0 0 0 0 0 0 0 0 0 0 0 0 0 0 0 0 0 0 0 0 0 0 0 0 0 0 0 0 0 0 0 0 0 0 0 0 0 0 0 0 0 0 0 0 0 0 0 0 0 0 0 0 0 0 0 0 0 0 0 0 0 0 0 0 0 0 96 0 0 0 0 0 0 0 0 0 0 0 0 0 0 0 0 0 0 0 0 0 0 0 0 0 0 0 0 0 0 0 0 0 0 0 0 0 0 0 0 0 0 0 0 0 64 0 0 0 0 0 0 0 0 0 0 0 0 0 0 0 0 0 0 0 0 0 0 0 0 0 0 0 0 0 0 0 0 0 1 0 0 0 0 0 0 0 0 0 33 10 0 0 0 0 0 0 0 0 0 0 0 20 1 0 30 20 0 0 0 0 0 0 0 0 0 0 0 0 0 0 0 0 0 0 0 0 0 0 0 0 0 6 2 0 0 0 0 0 0 0 0 0 0 0 0 0 0 0 0 0 0 0 0 0 0 0 0 0 0 0 0 0 0 0 0 0 0 0 0 0 0 0 0 0 0 0 0 0 0 0 0 0 0 0 0 0 0 0 0 0 0 0 0 0 0 0 0 0 0 0 0 0 123 0 0 0 1 0 0 0 0 0 0 0 0 0 0 0 0 0 0 0 0 0 0 0 0 0 0 0 0 0 0 0 0 0 0 0 0 0 0 0 0 0 0 0 0 0 0 0 0 0 0 0 0 0 0 0 0 0 0 0 0 0 0 0 0 0 0 0 0 0 0 0 0 0 0 0 0 0 0 0 0 0 0 0 0 25 20 0 
Printing Sanity2
Heartbeat CPU 0 instructions: 60000002 cycles: 35152695 heartbeat IPC: 0.488879 cumulative IPC: 0.488879 (Simulation time: 0 hr 4 min 52 sec) 
*** Reached end of trace for Core: 0 Repeating trace: traces/spec2k17/srv_37.champsimtrace.xz
Heartbeat CPU 0 instructions: 70000003 cycles: 55164052 heartbeat IPC: 0.499716 cumulative IPC: 0.494238 (Simulation time: 0 hr 6 min 13 sec) 
Heartbeat CPU 0 instructions: 80000000 cycles: 75235505 heartbeat IPC: 0.49822 cumulative IPC: 0.495558 (Simulation time: 0 hr 7 min 33 sec) 
Heartbeat CPU 0 instructions: 90000000 cycles: 95603599 heartbeat IPC: 0.490964 cumulative IPC: 0.494402 (Simulation time: 0 hr 8 min 51 sec) 
*** Reached end of trace for Core: 0 Repeating trace: traces/spec2k17/srv_37.champsimtrace.xz
Heartbeat CPU 0 instructions: 100000001 cycles: 115583629 heartbeat IPC: 0.5005 cumulative IPC: 0.495609 (Simulation time: 0 hr 10 min 13 sec) 
Heartbeat CPU 0 instructions: 110000000 cycles: 135647743 heartbeat IPC: 0.498402 cumulative IPC: 0.496073 (Simulation time: 0 hr 11 min 32 sec) 
Heartbeat CPU 0 instructions: 120000001 cycles: 155859807 heartbeat IPC: 0.494754 cumulative IPC: 0.495884 (Simulation time: 0 hr 12 min 52 sec) 
*** Reached end of trace for Core: 0 Repeating trace: traces/spec2k17/srv_37.champsimtrace.xz
Heartbeat CPU 0 instructions: 130000001 cycles: 176094735 heartbeat IPC: 0.494195 cumulative IPC: 0.495672 (Simulation time: 0 hr 14 min 12 sec) 
Heartbeat CPU 0 instructions: 140000002 cycles: 196036093 heartbeat IPC: 0.50147 cumulative IPC: 0.49631 (Simulation time: 0 hr 15 min 31 sec) 
Heartbeat CPU 0 instructions: 150000001 cycles: 216067237 heartbeat IPC: 0.499223 cumulative IPC: 0.496599 (Simulation time: 0 hr 16 min 51 sec) 
Heartbeat CPU 0 instructions: 160000000 cycles: 236410169 heartbeat IPC: 0.491571 cumulative IPC: 0.496138 (Simulation time: 0 hr 18 min 7 sec) 
*** Reached end of trace for Core: 0 Repeating trace: traces/spec2k17/srv_37.champsimtrace.xz
Heartbeat CPU 0 instructions: 170000003 cycles: 256394166 heartbeat IPC: 0.500401 cumulative IPC: 0.496491 (Simulation time: 0 hr 19 min 23 sec) 
Heartbeat CPU 0 instructions: 180000000 cycles: 276479838 heartbeat IPC: 0.497867 cumulative IPC: 0.496596 (Simulation time: 0 hr 20 min 41 sec) 
Heartbeat CPU 0 instructions: 190000002 cycles: 296785363 heartbeat IPC: 0.492477 cumulative IPC: 0.4963 (Simulation time: 0 hr 22 min 2 sec) 
*** Reached end of trace for Core: 0 Repeating trace: traces/spec2k17/srv_37.champsimtrace.xz
Heartbeat CPU 0 instructions: 200000001 cycles: 316788458 heartbeat IPC: 0.499923 cumulative IPC: 0.49654 (Simulation time: 0 hr 23 min 20 sec) 
Heartbeat CPU 0 instructions: 210000002 cycles: 336742119 heartbeat IPC: 0.501161 cumulative IPC: 0.496826 (Simulation time: 0 hr 24 min 37 sec) 
Heartbeat CPU 0 instructions: 220000000 cycles: 357071625 heartbeat IPC: 0.491896 cumulative IPC: 0.496533 (Simulation time: 0 hr 25 min 56 sec) 
*** Reached end of trace for Core: 0 Repeating trace: traces/spec2k17/srv_37.champsimtrace.xz
Heartbeat CPU 0 instructions: 230000000 cycles: 377067544 heartbeat IPC: 0.500102 cumulative IPC: 0.49673 (Simulation time: 0 hr 27 min 11 sec) 
Heartbeat CPU 0 instructions: 240000001 cycles: 397057874 heartbeat IPC: 0.500242 cumulative IPC: 0.496914 (Simulation time: 0 hr 28 min 30 sec) 
Heartbeat CPU 0 instructions: 250000001 cycles: 417295921 heartbeat IPC: 0.494119 cumulative IPC: 0.496773 (Simulation time: 0 hr 29 min 48 sec) 
Finished CPU 0 instructions: 200000002 cycles: 402598205 cumulative IPC: 0.496773 (Simulation time: 0 hr 29 min 48 sec) 

ChampSim completed all CPUs

Region of Interest Statistics

CPU 0 cumulative IPC: 0.496773 instructions: 200000002 cycles: 402598205
ITLB TOTAL     ACCESS:   33801443  HIT:   32268882  MISS:    1532561  HIT %:     95.466  MISS %:    4.53401   MPKI: 7.6628
ITLB LOAD TRANSLATION ACCESS:   33801443  HIT:   32268882  MISS:    1532561  HIT %:     95.466  MISS %:    4.53401   MPKI: 7.6628
ITLB PREFETCH  REQUESTED:          0  ISSUED:          0  USEFUL:          0  USELESS:          0
ITLB USEFUL LOAD PREFETCHES:          0 PREFETCH ISSUED TO LOWER LEVEL:          0  ACCURACY: -nan
ITLB TIMELY PREFETCHES:          0 LATE PREFETCHES: 0 DROPPED PREFETCHES: 0
ITLB PREFETCHES SAME FILL-ORIGIN LEVEL: 0 DIFFERENT FILL-ORIGIN LEVEL: 0
ITLB AVERAGE MISS LATENCY: 9.28544 cycles
ITLB RQ	ACCESS:   40672030	FORWARD:          0	MERGED:    6375811	TO_CACHE:   34296219

DTLB TOTAL     ACCESS:   39840165  HIT:   38306444  MISS:    1533721  HIT %:    96.1503  MISS %:    3.84969   MPKI: 7.6686
DTLB LOAD TRANSLATION ACCESS:   39840165  HIT:   38306444  MISS:    1533721  HIT %:    96.1503  MISS %:    3.84969   MPKI: 7.6686
DTLB PREFETCH  REQUESTED:          0  ISSUED:          0  USEFUL:          0  USELESS:          0
DTLB USEFUL LOAD PREFETCHES:          0 PREFETCH ISSUED TO LOWER LEVEL:          0  ACCURACY: -nan
DTLB TIMELY PREFETCHES:          0 LATE PREFETCHES: 0 DROPPED PREFETCHES: 0
DTLB PREFETCHES SAME FILL-ORIGIN LEVEL: 0 DIFFERENT FILL-ORIGIN LEVEL: 0
DTLB AVERAGE MISS LATENCY: 15.4753 cycles
DTLB RQ	ACCESS:   60956169	FORWARD:          0	MERGED:   20715779	TO_CACHE:   40240390

STLB TOTAL     ACCESS:    5532557  HIT:    5450999  MISS:      81558  HIT %:    98.5259  MISS %:    1.47415   MPKI: 0.40779
STLB LOAD TRANSLATION ACCESS:    3066282  HIT:    2984725  MISS:      81557  HIT %:    97.3402  MISS %:     2.6598   MPKI: 0.407785
STLB TRANSLATION FROM L1D PREFETCHER ACCESS:    2466275  HIT:    2466274  MISS:          1  HIT %:        100  MISS %: 4.0547e-05   MPKI: 5e-06
STLB PREFETCH  REQUESTED:          0  ISSUED:          0  USEFUL:          1  USELESS:          0
STLB USEFUL LOAD PREFETCHES:          1 PREFETCH ISSUED TO LOWER LEVEL:          0  ACCURACY: inf
STLB TIMELY PREFETCHES:          1 LATE PREFETCHES: 0 DROPPED PREFETCHES: 18951
STLB PREFETCHES SAME FILL-ORIGIN LEVEL: 0 DIFFERENT FILL-ORIGIN LEVEL: 0
STLB AVERAGE MISS LATENCY: 126.831 cycles
STLB RQ	ACCESS:    6723771	FORWARD:          0	MERGED:    1172263	TO_CACHE:    5551508

STLB Hit, L1D data hit: 0
STLB Hit, L2C data hit: 0
STLB Hit, LLC data hit: 0
STLB Hit, LLC data miss: 0
STLB STLB hints to L2: 0
L1D TOTAL     ACCESS:   52709806  HIT:   45942090  MISS:    6767716  HIT %:    87.1604  MISS %:    12.8396   MPKI: 33.8386
L1D LOAD      ACCESS:   26550408  HIT:   23484414  MISS:    3065994  HIT %:    88.4522  MISS %:    11.5478   MPKI: 15.33
L1D RFO       ACCESS:   22523991  HIT:   18830128  MISS:    3693863  HIT %:    83.6003  MISS %:    16.3997   MPKI: 18.4693
L1D PREFETCH  ACCESS:    3635407  HIT:    3627548  MISS:       7859  HIT %:    99.7838  MISS %:   0.216179   MPKI: 0.039295
AGUS PREFETCH L1 MISS: 0
L1D PREFETCH  REQUESTED:    7509577  ISSUED:    7509577  USEFUL:       6674  USELESS:       1185
L1D USEFUL LOAD PREFETCHES:       6674 PREFETCH ISSUED TO LOWER LEVEL:       8013  ACCURACY: 83.2897
L1D TIMELY PREFETCHES:       6674 LATE PREFETCHES: 152 DROPPED PREFETCHES: 18951
L1D PREFETCHES SAME FILL-ORIGIN LEVEL: 8013 DIFFERENT FILL-ORIGIN LEVEL: 0
L1D AVERAGE MISS LATENCY: 5047.13 cycles
L1D RQ	ACCESS:   45102722	FORWARD:          0	MERGED:   17798497	TO_CACHE:   27023975
L1D WQ	ACCESS:   34134601	FORWARD:     284137	MERGED:     202407	TO_CACHE:   33932194
L1D PQ	ACCESS:    3852088	FORWARD:          0	MERGED:     190712	TO_CACHE:    3657489

L1D UNIQUE REGIONS ACCESSED: 0
L1D REGIONS CONFLICTS: 0
L1D Cross Page Prefetch Requests: 19213
L1D Same Page Prefetch Requests: 3832875
L1D ROI Sum of L1D PQ occupancy: 45732392
L1D PREFETCHES PUSHED FROM L2C: 0
L1I TOTAL     ACCESS:   38027397  HIT:   28951180  MISS:    9076217  HIT %:    76.1324  MISS %:    23.8676   MPKI: 45.3811
L1I LOAD      ACCESS:   38027397  HIT:   28951180  MISS:    9076217  HIT %:    76.1324  MISS %:    23.8676   MPKI: 45.3811
L1I PREFETCH  REQUESTED:          0  ISSUED:          0  USEFUL:          0  USELESS:          0
L1I USEFUL LOAD PREFETCHES:          0 PREFETCH ISSUED TO LOWER LEVEL:          0  ACCURACY: -nan
L1I TIMELY PREFETCHES:          0 LATE PREFETCHES: 0 DROPPED PREFETCHES: 0
L1I PREFETCHES SAME FILL-ORIGIN LEVEL: 0 DIFFERENT FILL-ORIGIN LEVEL: 0
L1I AVERAGE MISS LATENCY: 16.8278 cycles
L1I RQ	ACCESS:   59014725	FORWARD:          0	MERGED:   18342695	TO_CACHE:   40672030

BTB TOTAL     ACCESS:   25792470  HIT:   24215892  MISS:    1576578  HIT %:    93.8874  MISS %:    6.11255   MPKI: 7.88289
BTB BRANCH_DIRECT_JUMP	ACCESS:    1657270  HIT:    1644420  MISS:      12850
BTB BRANCH_INDIRECT	ACCESS:    9945376  HIT:    9419363  MISS:     526013
BTB BRANCH_CONDITIONAL	ACCESS:    7366898  HIT:    7349104  MISS:      17794
BTB BRANCH_DIRECT_CALL	ACCESS:    2818310  HIT:    2778533  MISS:      39777
BTB BRANCH_INDIRECT_CALL	ACCESS:     593130  HIT:     481549  MISS:     111581
BTB BRANCH_RETURN	ACCESS:    3411486  HIT:    2542923  MISS:     868563
BTB BRANCH_OTHER ACCESS:          0  HIT:          0  MISS:          0

L2C TOTAL     ACCESS:   20312319  HIT:   13723581  MISS:    6588738  HIT %:    67.5628  MISS %:    32.4372   MPKI: 32.9437
L2C LOAD      ACCESS:   12141737  HIT:    9266254  MISS:    2875483  HIT %:    76.3174  MISS %:    23.6826   MPKI: 14.3774
L2C DATA LOAD MPKI: 11.5903
L2C INSTRUCTION LOAD MPKI: 2.78711
L2C RFO       ACCESS:    3693855  HIT:     167644  MISS:    3526211  HIT %:    4.53846  MISS %:    95.4615   MPKI: 17.6311
L2C PREFETCH  ACCESS:       8013  HIT:       7589  MISS:        424  HIT %:    94.7086  MISS %:     5.2914   MPKI: 0.00212
AGUS PREFETCH L1 MISS: 0
L2C DATA PREFETCH MPKI: 0.00212
L2C INSTRUCTION PREFETCH MPKI: 0
L2C WRITEBACK ACCESS:    4346000  HIT:    4204759  MISS:     141241  HIT %:    96.7501  MISS %:    3.24991   MPKI: 0.706205
L2C LOAD TRANSLATION ACCESS:      95004  HIT:      49657  MISS:      45347  HIT %:    52.2683  MISS %:    47.7317   MPKI: 0.226735
L2C TRANSLATION FROM L1D PREFETCHER ACCESS:      27710  HIT:      27678  MISS:         32  HIT %:    99.8845  MISS %:   0.115482   MPKI: 0.00016
L2C PREFETCH  REQUESTED:          0  ISSUED:          0  USEFUL:         56  USELESS:        399
L2C USEFUL LOAD PREFETCHES:         56 PREFETCH ISSUED TO LOWER LEVEL:        424  ACCURACY: 13.2075
L2C TIMELY PREFETCHES:         56 LATE PREFETCHES: 0 DROPPED PREFETCHES: 0
L2C PREFETCHES SAME FILL-ORIGIN LEVEL: 0 DIFFERENT FILL-ORIGIN LEVEL: 0
L2C AVERAGE MISS LATENCY: 159.452 cycles
L2C RQ	ACCESS:   15958634	FORWARD:          0	MERGED:          0	TO_CACHE:   15958306
L2C WQ	ACCESS:    4346000	FORWARD:        328	MERGED:          0	TO_CACHE:    4346000
L2C PQ	ACCESS:       8013	FORWARD:          0	MERGED:          0	TO_CACHE:       8013

L2C Instructions Evicting Data 513807
L2C Translations Evicting Data 41753
L2C Data Evicting Data 5302882
L2C Instructions Evicting Instructions 40071
L2C Translations Evicting Instructions 3380
L2C Data Evicting Instructions 500987
L2C Instructions Evicting Translations 3545
L2C Translations Evicting Translations 246
L2C Data Evicting Translations 40826
L2C Dense regions hint from L2: 0
PSCL5 TOTAL     ACCESS:     100509  HIT:     100509  MISS:          0  HIT %:        100  MISS %:          0   MPKI: 0
PSCL5 LOAD TRANSLATION ACCESS:      81557  HIT:      81557  MISS:          0  HIT %:        100  MISS %:          0   MPKI: 0
PSCL5 TRANSLATION FROM L1D PREFETCHER ACCESS:      18952  HIT:      18952  MISS:          0  HIT %:        100  MISS %:          0   MPKI: 0
PSCL5 PREFETCH  REQUESTED:          0  ISSUED:          0  USEFUL:          0  USELESS:          0
PSCL5 USEFUL LOAD PREFETCHES:          0 PREFETCH ISSUED TO LOWER LEVEL:          0  ACCURACY: -nan
PSCL5 TIMELY PREFETCHES:          0 LATE PREFETCHES: 0 DROPPED PREFETCHES: 0
PSCL5 PREFETCHES SAME FILL-ORIGIN LEVEL: 0 DIFFERENT FILL-ORIGIN LEVEL: 0

PSCL4 TOTAL     ACCESS:      96453  HIT:      96230  MISS:        223  HIT %:    99.7688  MISS %:   0.231201   MPKI: 0.001115
PSCL4 LOAD TRANSLATION ACCESS:      78725  HIT:      78502  MISS:        223  HIT %:    99.7167  MISS %:   0.283265   MPKI: 0.001115
PSCL4 TRANSLATION FROM L1D PREFETCHER ACCESS:      17728  HIT:      17728  MISS:          0  HIT %:        100  MISS %:          0   MPKI: 0
PSCL4 PREFETCH  REQUESTED:          0  ISSUED:          0  USEFUL:          0  USELESS:          0
PSCL4 USEFUL LOAD PREFETCHES:          0 PREFETCH ISSUED TO LOWER LEVEL:          0  ACCURACY: -nan
PSCL4 TIMELY PREFETCHES:          0 LATE PREFETCHES: 0 DROPPED PREFETCHES: 0
PSCL4 PREFETCHES SAME FILL-ORIGIN LEVEL: 0 DIFFERENT FILL-ORIGIN LEVEL: 0

PSCL3 TOTAL     ACCESS:      95471  HIT:      94154  MISS:       1317  HIT %:    98.6205  MISS %:    1.37948   MPKI: 0.006585
PSCL3 LOAD TRANSLATION ACCESS:      76519  HIT:      75202  MISS:       1317  HIT %:    98.2789  MISS %:    1.72114   MPKI: 0.006585
PSCL3 TRANSLATION FROM L1D PREFETCHER ACCESS:      18952  HIT:      18952  MISS:          0  HIT %:        100  MISS %:          0   MPKI: 0
PSCL3 PREFETCH  REQUESTED:          0  ISSUED:          0  USEFUL:          0  USELESS:          0
PSCL3 USEFUL LOAD PREFETCHES:          0 PREFETCH ISSUED TO LOWER LEVEL:          0  ACCURACY: -nan
PSCL3 TIMELY PREFETCHES:          0 LATE PREFETCHES: 0 DROPPED PREFETCHES: 0
PSCL3 PREFETCHES SAME FILL-ORIGIN LEVEL: 0 DIFFERENT FILL-ORIGIN LEVEL: 0

PSCL2 TOTAL     ACCESS:      91752  HIT:      79844  MISS:      11908  HIT %:    87.0215  MISS %:    12.9785   MPKI: 0.05954
PSCL2 LOAD TRANSLATION ACCESS:      81558  HIT:      69650  MISS:      11908  HIT %:    85.3993  MISS %:    14.6007   MPKI: 0.05954
PSCL2 TRANSLATION FROM L1D PREFETCHER ACCESS:      10194  HIT:      10194  MISS:          0  HIT %:        100  MISS %:          0   MPKI: 0
PSCL2 PREFETCH  REQUESTED:          0  ISSUED:          0  USEFUL:          0  USELESS:          0
PSCL2 USEFUL LOAD PREFETCHES:          0 PREFETCH ISSUED TO LOWER LEVEL:          0  ACCURACY: -nan
PSCL2 TIMELY PREFETCHES:          0 LATE PREFETCHES: 0 DROPPED PREFETCHES: 0
PSCL2 PREFETCHES SAME FILL-ORIGIN LEVEL: 0 DIFFERENT FILL-ORIGIN LEVEL: 0

LLC TOTAL     ACCESS:   10467555  HIT:    4166373  MISS:    6301182  HIT %:    39.8027  MISS %:    60.1973   MPKI: 31.5059
LLC LOAD      ACCESS:    2875478  HIT:    1627026  MISS:    1248452  HIT %:    56.5828  MISS %:    43.4172   MPKI: 6.24226
LLC RFO       ACCESS:    3526177  HIT:     980214  MISS:    2545963  HIT %:    27.7982  MISS %:    72.2018   MPKI: 12.7298
LLC PREFETCH  ACCESS:        424  HIT:        410  MISS:         14  HIT %:    96.6981  MISS %:    3.30189   MPKI: 7e-05
AGUS PREFETCH L1 MISS: 0
LLC WRITEBACK ACCESS:    4020097  HIT:    1547718  MISS:    2472379  HIT %:    38.4995  MISS %:    61.5005   MPKI: 12.3619
LLC LOAD TRANSLATION ACCESS:      45347  HIT:      10991  MISS:      34356  HIT %:    24.2375  MISS %:    75.7625   MPKI: 0.17178
LLC TRANSLATION FROM L1D PREFETCHER ACCESS:         32  HIT:         14  MISS:         18  HIT %:      43.75  MISS %:      56.25   MPKI: 9e-05
LLC PREFETCH  REQUESTED:          0  ISSUED:          0  USEFUL:          0  USELESS:         32
LLC USEFUL LOAD PREFETCHES:          0 PREFETCH ISSUED TO LOWER LEVEL:         14  ACCURACY: 0
LLC TIMELY PREFETCHES:          0 LATE PREFETCHES: 0 DROPPED PREFETCHES: 0
LLC PREFETCHES SAME FILL-ORIGIN LEVEL: 0 DIFFERENT FILL-ORIGIN LEVEL: 0
LLC AVERAGE MISS LATENCY: 136.031 cycles
LLC RQ	ACCESS:    6447073	FORWARD:          0	MERGED:          0	TO_CACHE:    6447034
LLC WQ	ACCESS:    4020097	FORWARD:         39	MERGED:          0	TO_CACHE:    4020097
LLC PQ	ACCESS:        424	FORWARD:          0	MERGED:          0	TO_CACHE:        424

LLC Dense regions hint to LLC: 0

RAW hits: 2490166
Loads Generated: 47592890
Loads sent to L1D: 45102722
Stores Generated: 34134585
Stores sent to L1D: 34134601
Major fault: 0 Minor fault: 9332
Allocated PAGES: 9332
ucb ended
-----------------------------------------------------------------------------------------------------------------------------------------------------------------------------------------------------
Offsets elements: -50341 -15988 66329 -50340 50339 -50339 50340 1 -1 50341 -66328 2 -37828 37827 -37827 37829 20318 -20317 20316 -20315 -2 -49612 49614 10398050 -10398050 3 10397196 5 -10397199 10397198 -10397198 -2200619108722 2200619108725 10397190 -10397190 10397073 -10397076 -24170 10421350 -10397178 10395169 -2200629472974 2200619077806 -24172 24174 -24174 24173 -24175 24175 -12234 32577 -32577 32583 -6 -7 -2200619129073 2200619129071 -20336 20319 -32554 -37402 -72465807161 72465856798 32559 17 -20340 20336 -20341 12 -2200619128268 2200619128262 7 -18 10 -2200619129071 -20335 20341 -4 -2200619128269 2200619128261 8 -19 -2200619129061 2200619129065 -12770423 12750097 20317 -44504 24187 -3 -2200619104506 2200619104511 -20320 10419340 2200619077821 -24187 -9010 -12703090 -38007 38007 12712101 -12750099 12741087 -1207958 1216969 -15157 24170 -12750109 12750110 -9014 9013 -24198 24202 4 -288223780699134316 18880336 -19493346 6 -1465995991885 1465995991879 502368 -502373 -1465995992266 408 1465995991857 502374 19493346 -19493340 18990975 -65742157 -1465949743081 1465949743080 46544681 206401 -1465996494204 -332 1466015485608 -1466015483814 1465949718471 -1465949719960 -1730 1730 1466015485303 -1466015485605 1465996605295 -1465996605295 1794 1465996603501 -1465996604963 1465949719933 -1465949721690 1425 -1465949719933 1465996481222 19004388 -1466015483812 1466015483811 -18972640 18972641 -18991073 -206403 -1465996288136 1465996288143 -1465996288116 1465996587447 17806 288223780709529729 -10419615 -2200619201324 2200619201347 -72119 72119 87045 9244 -9244 -14953 14952 9246 -12697150 -2200606404101 2200619092006 9243 -12687910 12687910 -2200619181936 2200619181937 -12687907 -5 8228426 -8228427 12697156 2200619191180 -9241 -12687911 12697151 -2200619190921 2200606493770 12660476 -2200619047522 2200619047524 12480 -12480 10395153 2200619077822 -36665 -16 18 36645 -36670 22 36650 -36663 36667 -36675 44693 -2200619092278 2200619092280 -2200619199154 2200619199154 -179156 171110 -36653 -36662 14 -14 36663 36668 -36668 -2200619047525 2200619047540 -25 -12961 49633 -36667 16 -2200619071270 2200619071263 -2200619047520 -23978 2200614636860 14868626 -14868626 4459076 10409550 4459084 12221 -12230 12227 -2200619065711 2200614594396 14868639 -14868639 -10364983 -4503656 4471316 32307 -32307 -3744231614 3744231614 -4471318 4471319 32363 -44589 12228 -12228 -24438 36666 -36669 2200619071961 12229 24433 -24416 24415 -24435 -2200619072094 2200619072094 36647 -36642 -27 24441 -24436 -2200619047526 19 -2200619071283 2200619071284 -2200619108742 2200619108745 -36651 36653 12230 -12229 -24433 -288223780699451440 288223780699451438 -9 -24413 24413 12237 -17 20 -2200619095703 2200619071268 -2200619071242 2200619071233 -2200619071269 2200619107927 -36658 36659 -36661 12225 -36644 24416 24414 -24419 24418 -24415 24436 -2200619095702 -12227 -2200619093850 2200619106076 -2200619108735 2200619096511 -24414 36639 -12224 44591 -44592 12223 -12223 -12222 -24418 24417 -24421 24438 12219 -12221 -24437 -24432 24439 -24444 24442 -24423 36642 -12220 24435 -24417 -15 -2200619071279 2200619071283 -36640 -2200619154310 2200619154305 -11 24444 -24425 24426 -2200619072095 2200619072088 -2200619071243 2200619071245 -2200619072092 2200619108736 -36647 24422 -37415 10447665 -10410250 -24422 24424 -24426 2200619154294 11 24431 44711 2200619092278 -179149 121478 49618 -12219 12218 -12218 44703 2200619178883 -44701 -134441 121471 37407 44564 24 -24443 24437 -32348 -49594 37376 20272 -155254 134981 -24441 -32349 -147200 134979 -32347 -2200619095851 162 2200619095688 -44565 12211 -2200619108070 2200619108067 -188385 -2200618919662 2200619108049 -12214 -81925 -2200619141430 2200619191001 -12210 12214 -12213 -2200619095689 12209 32355 -32353 -2200619108048 2200619095836 32356 -2200619108073 2200619108072 -2200619108069 2200618968327 -2200618968984 2200619120579 -11850 11850 11849 -11849 -11853 11853 -2200619119899 -2200619108050 2200619095837 24064 -24065 24063 -36024 36027 20499 -2200619223353 2200619223353 -20499 24065 44565 -20501 -49872 38014 11856 -32354 11855 -11855 -11856 -49567 61424 -61425 49570 -49569 61421 24167 10395172 -10395172 -2200619077802 2200619089660 -2200619120580 2200619120580 -25807 38013 11851 -11851 -147196 147196 20273 -20273 -37414 57686 10389979 10410251 -10410252 -37376 -97600 134977 38023 -147194 134975 49574 -147192 147192 -12217 -44715 -179148 57677 -20272 -2200619178882 106876 -179158 -2200619019998 2200619178884 44588 -44590 -20270 -11962 32234 -2200619092200 2200618913042 203450 -645310 562790 37953 -37957 37955 -2200619096513 2200619072077 -13517 37956 12213 -12215 -44588 -11961 56550 -203474 158884 20274 -158880 10566258 -10566258 171091 -70696 -38464 -61936 100402 10465862 1913 -10409293 -158891 203479 -158887 -2200619027247 2200619186134 12210 -171102 100407 10467775 -10409294 -2200619095936 2200618937047 158891 -158886 2200619186133 -24439 -12211 -203447 24179 179268 -32356 -171086 158877 10407379 -2200629503697 2200629505724 -12208 10568298 -2200629505339 2200629505339 -2022 2200629475001 10398033 -10398034 -70693 70694 -171104 10568182 -10421253 2200619053634 2200629473275 -11565845 1146204 -2200629503894 2200619084554 -2200619053634 2200629472974 -10395166 -2200619108828 2200629504297 -10419643 -2200619084554 614 2200629505302 -2200629505302 -10409403 -158890 10568290 -10397195 -12205 -2200619095939 2200619095937 158892 158882 241 2200619107902 -171097 158890 -2200619095696 2200619095697 -158877 158878 -37416 -10410249 -44564 -81980 81980 44589 10410253 -10365689 -37375 -97608 134983 12200 32364 -32363 -147187 147184 -12204 10447616 -10398058 -147183 147182 -12203 -37407 37405 24293 -44566 -20274 -158878 203442 -81942 -97596 134973 11865 -159038 109166 -109164 134971 -11866 -49559 49560 -147171 147171 -12198 -2200619091328 2200619058962 -2200619107936 -82959 2200619178697 81981 10365684 44566 -44567 -24294 -179150 -2200619140271 2200619107901 -2200619058970 3560958 2200615461344 36670 -36672 69034 -69027 24461 -158876 121532 37345 -24063 -24469 36664 -12197 12197 10431852 -10431850 -12196 -24455 24454 -69043 69036 -2200619140267 2200619071250 36648 24470 -24472 24471 -24462 44733 -8076 -171073 37399 -24470 69019 -69019 24453 -24453 69020 -69015 69015 24452 -24450 -2200619038378 2200619038383 24448 -12942 -72465807171 72465820116 -24471 24474 -2200619071965 2200619084159 -36650 24457 -24456 9 -2200619072070 2200619072059 24450 12194 -36648 -24452 24447 -24449 -13471 -2200619055930 2200619069399 -2200619072059 2200619072071 -12 -2200619072047 2200619058590 13467 36643 -36641 -10 -2200619071217 2200619071197 -2128153251929 2200619072065 -20 -13457 13472 -13472 13457 50117 -50118 13480 -13479 13475 -13477 13474 -13474 50119 -50119 50114 36644 50118 50115 13453 -13449 -2200619034042 2200619047494 -13454 50113 -50111 109040 -3744290508 3744290508 -109039 -3744181441 3739760271 -3754628910 4471279 -3744231549 3744231548 -50113 -2200619058023 -3739760389 3754629015 -3754629015 3739760389 4471267 -3744231655 3744231659 -36637 -21 -2200619072064 2200619072064 36641 36646 -2200619107899 -810 -36639 44740 2200619191073 36640 -36638 -2200619071212 2200619107861 -2200619071213 2200619071219 -2200619071219 2200619107858 -36645 36637 2200619071213 36649 -36643 -23 -12932 -2200619058265 2200619071221 -2200619108705 2200619072066 -2200619071255 2200619071239 36656 -36660 -8 -12734975 12771642 -2200619199153 2200619154426 2200619107864 -36649 2200619072058 -36659 -1340 38002 -38002 57008 47464 -50482 50483 -66470 38001 -38001 38003 -36666 36669 49615 10398051 -10397197 2200619108726 10397191 -12226 -24409 -2200619072089 2200619072087 -12972 -12225 12226 -2200619071284 2200619071286 -2200619072087 -2200619071277 2200619071285 -2200619072077 2200619072081 36658 -12697142 12697145 2200619047527 -12702656 12702656 11480175 1207726 -14925 -12697155 -9246 9245 -24199 24203 -19197468 -1465996287751 1465996287752 -1465996288137 1465996288137 206437 -206436 19197474 -18991037 -1465996494166 1465996287729 206431 18991040 -65742160 -1465949743078 1465949743077 46751085 305 1489 1465995987909 -1465995989398 1465949719960 1429 1465949720265 -1465949718471 -1462 1462 -1794 -1425 1465996482646 -46760956 -1465949718468 -19004387 13314 18432 -523267 -1465995989704 1465995989705 -1465995989690 96292 -96292 96293 -96286 87210 -15120 15120 -12741106 -2200606351067 2200619092174 9075 -9076 -12741112 12750190 -9077 -2200619166984 -12750182 12741112 -12741115 -2200606440736 2200619204602 -4482405 4444531 -2200619060004 2200619097880 -37876 13697 -13691 13705 -13711 13708 -22 -13684 13685 -13689 13701 -5644 -2200618913122 -106876 2200619204820 -13706 13695 -13692 13691 -13686 13686 -2200619097881 2200619097896 25 -63324 63324 -2200619121619 23743 10409542 4471305 4503624 -32308 32658 -3744264272 3739760296 -3739760296 3744263946 -44549 -13690 13687 -13687 -2200619071969 2200619097883 -25915 25932 -25933 25913 -13709 -2200619108741 2200619122428 -25907 25912 -25927 -2200619071970 13 -13702 -2200619095709 -811 2200619096520 25915 -288223780699749872 288223780699749870 13711 -25935 13689 -13688 -13705 13688 -2200619121624 2200619121619 -2200619121623 36 2200619095674 13712 25933 -25934 25929 -25930 -25914 -2200619121622 -2200619093858 2200619096519 25934 -13717 -12216 44551 -44547 12215 -44550 25926 -25910 25914 -25912 25910 -25909 25904 -25906 25925 -13714 -25929 25911 -2200619121621 2200619121639 13716 -2200619204661 2200619204650 -25904 -2200619108736 2200619096522 -25922 25921 -2200619121599 2200619121601 -13712 2200619122445 -25923 -37423 63349 -25924 10410242 -10384320 -2200619204666 -25917 -5646 -2200619092279 -5653 -20263 25916 -184797 -2200619020006 2200619178892 81963 -18633 -25911 44524 -32316 37384 20264 134989 25907 12207 32317 134987 32315 -44525 -2200619095859 2200619095696 44525 -32322 -2200619108068 2200619108070 -188387 176181 -2200619095843 2200619095844 -81893 -12202 12206 -2200619095697 12201 32323 -32321 2200619108046 -12201 12203 32322 -32318 -657 2200618970278 138451 11933 -11933 -11934 11935 -11937 11937 -2200619119983 2200619095845 24140 -24141 24139 -11940 -24168 56494 -20383 -2200619202938 2200619223321 20383 24141 -20385 -11942 -37888 37891 11941 11939 -11939 -11941 11940 49569 -61508 61506 -36108 2200619089744 -2200619096523 2200619070834 37887 -11935 20265 -20265 10389980 -10410244 10410243 -10447627 49594 134985 -37897 37898 -49575 49576 -12209 25917 -5642 -20264 -2200618913130 -57679 2200619019998 158894 44549 -20262 -11970 203418 -600753 600751 -600749 -2200618495772 2200619122433 -63871 37964 -37963 37963 12205 -12207 56518 -203442 20266 -158888 -100400 -10504328 10506241 -10409285 -158899 158898 -44548 -158895 2200619186142 -32346 -10409286 -2200619095944 2200619095946 -158894 158899 -2200619186141 2200619186141 25909 203415 -32324 134711 10407371 -10409399 10409399 2200618937041 10397199 -2200629475000 10398034 -10468726 -2200629503994 -10409400 -158898 -2200619108144 2200619095947 -2200618937057 -2200618936806 2200619095706 44550 -203434 158885 -37424 37424 -10365717 -44524 -10410241 10365697 -10365721 -37383 134991 12192 32332 -32331 -37368 49557 11952 -11951 10398057 -10398055 -12195 37413 44526 203410 -81910 11949 -159122 109292 -109290 -11950 -12190 -32334 -2200619058961 -48975 2200619178705 -158885 -37425 37423 10410241 -10365716 -44527 -24260 -2200618936829 3562463 2200615496509 32334 -18646 -25886 -183024 37353 -32338 -12187 25879 -25880 12190 10381496 -10381494 -25876 25893 -25894 -18655 18648 -18629 -2200619121606 2200619121585 -25878 25876 -25877 25886 -5623 2200618913130 25898 15 18631 -18631 -25895 44527 -18627 25878 21 -2200619088734 2200619062839 -63298 72465870472 25895 25877 12186 -2200619084158 2200619097864 -25891 25892 18657 -2200619122421 2200619108709 -12186 12187 -12188 25896 -25901 25901 -25899 25881 -2200619119757 2200619055938 63817 -2200619122415 2200619122421 -2200619122427 2200619122414 -63817 63815 -13710 -13713 13715 -2200619121573 2200619121553 -2200619059100 -72465870474 72465870474 -63805 63820 -63820 50110 -50110 63805 23 -63827 63823 -63825 63822 50106 -50108 50107 13698 63801 -63797 63800 -63803 -2200619034047 2200619034048 50105 -50103 100872 -100871 -3744181476 3739760278 -3739760278 3754628917 -3744231556 3744231557 -4471279 3739760275 -3739760275 -994 -3739759277 3744231545 -4471274 14869633 -3754628936 3739760297 -3739760297 994 -3739760399 3739760399 -998 -3739760453 3739760457 -3739760309 3739760309 -3739760242 3739760246 -3754628946 3739760311 -3739759313 3739760307 -3739760307 -2196874876919 2200631412345 -1906429 -10397419 -3744231577 3744207465 -3744207465 -2196874919544 2196874919544 2196874876919 -2196874833859 2200631360072 -1897650 1906827 1906455 -12303877 12303852 82 -12303932 10397421 -10397421 10397422 -3754628996 -2196874919545 2200619151120 12303850 -10397423 -2200619104882 39285 2200619065593 -3744231572 -2196874873307 2200619104879 -2200619065594 -39285 2200619065596 3744231577 12303853 -12303856 12303875 -1906455 -3744231514 3739760242 -2200614637226 10397419 -10397420 -3754628933 3744207400 -3744207400 -2196874919609 2196874919609 -2196874876984 43060 1906863 -36 -1906394 1906454 -2200629548541 1906429 -3756535403 3754628974 -2200619104881 2196874834044 -2196874873329 39286 -2200619065593 -3744231551 3744231551 -12303855 12303855 -12303874 4471276 -50105 -2200619058031 3744231655 -2200619122420 2200619122420 -13715 13717 -5616 -13716 13722 -13719 13713 -13707 13718 -2200619107861 2200619121570 -13708 13714 -2200619121575 13710 -2200619121552 2200619058264 2200619121576 -2200619122422 2200619122419 -2200619121611 2200619121610 -13700 13696 -5629 -12779508 -2200606419645 2200619204782 -2200619121569 13707 -51570 56905 47456 -66487 15988 50499 -50498 50497 -50497 50498 -50499 -66486 37875 -37875 37877 13690 -24173 25939 -2200619122445 2200619122443 25908 -37418 63333 -72465870494 72465870494 -2200619121640 2200619121642 -2200619122443 -2200619121633 2200619121641 -2200619122433 2200619122437 -13698 -12750176 12750179 37874 -9074 -12702942 -38171 12750188 -12750179 12741103 9077 -12726019 11533218 1216972 -9078 9078 -19495906 -1465995989325 1465995989319 504915 -1465996494621 19495906 -18990990 -1465996494213 1465995989297 504910 18990993 -1466015485237 1465949743067 46751095 -208961 -1465996285243 -1489 -3219 1757 1466015485276 -1465996481221 1466015485609 -1466015485612 1465996587468 -1465996605253 1465996494518 -208962 -1465996283780 1465996283779 -1465996283783 1465949718468 46760957 31746 288223780709622032 -96290 96290 -9312 -14885 14884 -12687916 -2200606404021 2200619091938 9311 -12687922 12687923 -2200619181871 2200619191182 -9314 -14884 -12673032 -2200606493952 2200606493946 12697233 -9311 -12687925 8228507 -8228507 -2200606493690 2200619153766 12962 -12960 -2200619047044 2200619047044 12960 -37139 37145 -37131 37125 -37128 37152 -37151 37147 -37135 45192 2200618913122 171111 -37125 37130 -37141 37144 -37145 37150 -37150 -2200619047045 2200619047060 -12488 12488 -2200619070783 4459092 10409534 -12206 -2200619053500 4503976 -32 -32627 3744219405 -4471319 4471318 3744264298 -69829 37149 -2200619084190 2200619047047 -2200619071599 2200619096529 -24914 37133 -24932 37131 -24931 24910 -24921 -13 -2200619047061 2200619071978 -24929 37148 -288223780699454000 288223780699453998 24909 -37147 -37148 -2200619070788 2200619070783 -2200619070799 2200619070787 -2200619070762 2200619095682 -37124 -24911 -24915 24914 24930 -2200619070786 -2200619093866 2200619096527 24911 -24910 37119 44895 -44891 32689 -32688 -24917 24934 -24933 24932 -24928 24935 24938 -24918 37122 24913 -24919 -2200619070785 2200619070803 -37120 -2200619153825 2200619153814 24940 24922 -2200619096531 2200619071608 -2200619070763 2200619070765 37124 2200619071609 24921 -37431 12513 24920 10410234 -10435156 -2200619153830 24927 -24934 45190 12202 45183 -20255 -133961 2200619178900 -37422 82315 -69821 24933 44868 -32668 37392 20256 134997 -24937 12199 32669 134995 32667 -44869 -2200619095867 2200619095705 44869 12195 2200619095851 -82245 -12194 12198 -2200619095705 2200619095704 12193 32675 -32673 -2200619095853 2200619095852 2200618973285 135444 11817 -11817 -11818 11819 -11821 11821 -2200619119867 2200619108050 24016 -24017 24015 -11824 56846 -20851 -2200619202822 2200619223673 20851 24017 -20853 -11826 -38062 38065 11825 -32674 11823 -11823 32674 -11825 11824 -61392 61390 -35992 2200619089628 2200619070660 38062 -11819 20257 -20257 -10410236 10410235 134993 -38071 38072 -24938 45195 -45184 -20256 -2200619092280 2200619034601 158902 44893 -44894 -20254 -11978 203770 -600761 600759 -600757 2200619058558 13035 -13037 37972 -37971 37970 56870 -203794 158900 20258 -158896 -100402 10566264 -10409277 -158907 158906 -44892 -158903 158903 -2200619186150 2200619186150 -32698 -10409278 -2200619095952 158907 -158902 2200619186147 -24935 37127 203767 -32676 134719 10407363 -10409391 10409391 -171101 -10409392 -158906 171095 10397195 2200619095955 2200619095714 44894 -203786 158893 -37432 37432 -10365365 -44868 -10410233 10365345 -10365369 -37391 134999 12184 32684 -32683 11834 10386223 37421 -24613 -20258 203762 -82262 11833 -159006 109118 -109116 -11834 -12182 -32686 2200619178713 -158893 -37433 37431 44870 10410233 -10365364 -44871 -24612 -2200619140591 3571686 2200615487286 -37149 32686 -69834 24958 -182908 37361 -24965 -12181 12182 -24969 10432332 -10432330 24968 -24951 24950 -69843 69836 -69817 -2200619070770 2200619070749 24966 -24968 24967 -24958 45213 37415 -24966 69819 -69819 24949 44871 -2200619037896 2200619037903 24944 -12462 72465819636 -24949 -24964 24970 12178 2200619047028 24953 -24952 69845 -2200619071585 -12178 12179 -12180 -24948 24943 -24943 24945 -24963 -12911 -2200619056010 2200619068919 -2200619071579 2200619071585 -2200619071591 2200619071578 -12897 12907 37126 37123 -37121 -2200619070737 2200619070717 -72465819638 72465819638 -12912 12897 37141 -50038 12920 -12919 12915 -12917 12914 -50039 50034 -50036 50038 50035 -37138 -12889 12892 -12895 -2200619034119 2200619034120 50033 -50031 100832 -100831 -3744181548 3744231555 -50033 -2200619058103 4471266 -37117 -2200619071584 2200619071584 37121 -37119 45205 37120 -37118 37129 2200619070734 37128 -37122 -2200619070739 -37123 37117 -37126 -37146 2200619058265 12476 2200619071586 -2200619070775 2200619070774 37136 -37140 45207 -12779798 -2200606419355 2200619153946 -2200619070733 -37129 -908 57047 47611 -50620 50621 -66608 -38050 38049 -38049 38051 -49615 10398049 -10398047 
Potential of Offsets elements: 27.9829 27.9829 27.9829 29.9829 29.9829 30.9829 27.9829 1222.13 907.568 27.9829 27.9829 679.983 27.9829 27.9829 27.9829 27.9829 27.9829 27.9829 27.9829 27.9829 712.983 27.9829 27.9829 27.9829 27.9829 609.983 27.9829 366.983 27.9829 27.9829 27.9829 27.9829 27.9829 27.9829 27.9829 27.9829 27.9829 28.9829 27.9829 27.9829 27.9829 28.9829 27.9829 27.9829 33.9829 28.9829 27.9829 32.9829 27.9829 27.9829 27.9829 27.9829 27.9829 464.983 479.983 27.9829 27.9829 27.9829 27.9829 27.9829 27.9829 27.9829 27.9829 27.9829 403.983 27.9829 27.9829 27.9829 51.9829 27.9829 27.9829 358.983 184.983 411.983 27.9829 27.9829 27.9829 555.983 27.9829 27.9829 421.983 331.983 27.9829 27.9829 27.9829 27.9829 27.9829 27.9829 27.9829 27.9829 27.9829 27.9829 27.9829 27.9829 38.9829 30.9829 27.9829 27.9829 27.9829 35.9829 27.9829 27.9829 27.9829 27.9829 27.9829 27.9829 51.9829 27.9829 27.9829 35.9829 27.9829 27.9829 51.9829 743.983 27.9829 30.9829 27.9829 1175.98 27.9829 27.9829 27.9829 27.9829 27.9829 28.9829 27.9829 27.9829 27.9829 27.9829 27.9829 27.9829 27.9829 27.9829 27.9829 27.9829 27.9829 45.9829 27.9829 27.9829 39.9829 27.9829 27.9829 31.9829 27.9829 27.9829 39.9829 27.9829 27.9829 37.9829 27.9829 27.9829 33.9829 27.9829 27.9829 33.9829 27.9829 27.9829 28.9829 27.9829 29.9829 27.9829 27.9829 27.9829 27.9829 27.9829 28.9829 27.9829 27.9829 40.9829 27.9829 27.9829 31.9829 27.9829 27.9829 27.9829 27.9829 27.9829 27.9829 27.9829 27.9829 27.9829 27.9829 27.9829 27.9829 27.9829 27.9829 27.9829 28.9829 361.983 27.9829 27.9829 27.9829 27.9829 27.9829 27.9829 27.9829 27.9829 27.9829 27.9829 27.9829 27.9829 27.9829 27.9829 29.9829 27.9829 27.9829 532.983 71.9829 27.9829 27.9829 88.9829 27.9829 27.9829 27.9829 27.9829 27.9829 27.9829 27.9829 27.9829 27.9829 27.9829 27.9829 27.9829 27.9829 66.9829 294.983 27.9829 27.9829 27.9829 27.9829 27.9829 486.983 27.9829 27.9829 27.9829 233.983 27.9829 27.9829 27.9829 27.9829 27.9829 27.9829 27.9829 27.9829 27.9829 27.9829 27.9829 27.9829 27.9829 27.9829 27.9829 27.9829 27.9829 27.9829 27.9829 27.9829 27.9829 27.9829 27.9829 27.9829 27.9829 27.9829 27.9829 27.9829 27.9829 27.9829 27.9829 27.9829 27.9829 27.9829 27.9829 27.9829 27.9829 27.9829 27.9829 27.9829 27.9829 27.9829 27.9829 77.9829 27.9829 27.9829 27.9829 409.983 47.9829 36.9829 107.983 27.9829 27.9829 27.9829 27.9829 27.9829 27.9829 27.9829 27.9829 496.983 27.9829 27.9829 27.9829 198.983 630.983 27.9829 27.9829 27.9829 27.9829 27.9829 47.9829 27.9829 27.9829 27.9829 27.9829 27.9829 27.9829 27.9829 27.9829 27.9829 27.9829 27.9829 27.9829 27.9829 27.9829 43.9829 27.9829 27.9829 27.9829 27.9829 27.9829 27.9829 27.9829 27.9829 27.9829 27.9829 27.9829 27.9829 27.9829 27.9829 27.9829 27.9829 27.9829 27.9829 27.9829 27.9829 27.9829 27.9829 27.9829 27.9829 27.9829 27.9829 321.983 27.9829 27.9829 27.9829 27.9829 27.9829 295.983 27.9829 27.9829 27.9829 27.9829 27.9829 29.9829 42.9829 27.9829 27.9829 27.9829 27.9829 27.9829 27.9829 27.9829 27.9829 27.9829 27.9829 27.9829 229.983 27.9829 27.9829 27.9829 27.9829 27.9829 27.9829 27.9829 27.9829 27.9829 27.9829 27.9829 27.9829 27.9829 27.9829 27.9829 27.9829 301.983 27.9829 27.9829 27.9829 27.9829 27.9829 27.9829 27.9829 27.9829 27.9829 27.9829 27.9829 27.9829 27.9829 27.9829 27.9829 27.9829 27.9829 27.9829 27.9829 27.9829 27.9829 27.9829 27.9829 27.9829 27.9829 27.9829 27.9829 27.9829 27.9829 27.9829 27.9829 27.9829 27.9829 27.9829 27.9829 27.9829 27.9829 27.9829 27.9829 27.9829 27.9829 27.9829 27.9829 27.9829 27.9829 27.9829 27.9829 27.9829 27.9829 27.9829 27.9829 27.9829 27.9829 27.9829 27.9829 27.9829 27.9829 27.9829 27.9829 27.9829 27.9829 27.9829 27.9829 27.9829 27.9829 27.9829 27.9829 27.9829 1193.98 87.9829 45.9829 27.9829 27.9829 27.9829 29.9829 79.9829 27.9829 33.9829 77.9829 31.9829 35.9829 27.9829 27.9829 27.9829 27.9829 27.9829 27.9829 27.9829 27.9829 67.9829 27.9829 27.9829 27.9829 43.9829 29.9829 27.9829 27.9829 27.9829 31.9829 27.9829 27.9829 103.983 27.9829 27.9829 131.983 39.9829 27.9829 27.9829 33.9829 33.9829 27.9829 27.9829 31.9829 63.9829 27.9829 27.9829 27.9829 27.9829 27.9829 65.9829 27.9829 27.9829 31.9829 27.9829 27.9829 30.9829 42.9829 27.9829 27.9829 27.9829 27.9829 27.9829 27.9829 27.9829 27.9829 27.9829 222.983 27.9829 27.9829 27.9829 27.9829 27.9829 33.9829 27.9829 27.9829 50.9829 27.9829 27.9829 43.9829 27.9829 27.9829 27.9829 27.9829 27.9829 27.9829 27.9829 27.9829 27.9829 30.9829 27.9829 27.9829 27.9829 27.9829 27.9829 27.9829 27.9829 27.9829 27.9829 27.9829 27.9829 29.9829 28.9829 27.9829 27.9829 27.9829 27.9829 27.9829 27.9829 27.9829 27.9829 27.9829 27.9829 27.9829 27.9829 27.9829 27.9829 27.9829 27.9829 27.9829 27.9829 27.9829 27.9829 27.9829 27.9829 27.9829 27.9829 31.9829 27.9829 31.9829 27.9829 27.9829 27.9829 27.9829 27.9829 27.9829 27.9829 27.9829 27.9829 27.9829 27.9829 27.9829 27.9829 27.9829 27.9829 27.9829 27.9829 27.9829 27.9829 27.9829 27.9829 27.9829 27.9829 27.9829 27.9829 27.9829 27.9829 27.9829 27.9829 27.9829 27.9829 27.9829 27.9829 27.9829 27.9829 27.9829 27.9829 27.9829 27.9829 27.9829 27.9829 27.9829 27.9829 27.9829 27.9829 27.9829 27.9829 27.9829 27.9829 27.9829 27.9829 27.9829 27.9829 27.9829 27.9829 27.9829 27.9829 27.9829 27.9829 34.9829 27.9829 27.9829 73.9829 27.9829 27.9829 55.9829 27.9829 27.9829 27.9829 27.9829 33.9829 28.9829 27.9829 27.9829 27.9829 27.9829 27.9829 27.9829 27.9829 27.9829 48.9829 27.9829 27.9829 27.9829 27.9829 27.9829 27.9829 27.9829 27.9829 27.9829 27.9829 27.9829 27.9829 27.9829 27.9829 27.9829 27.9829 27.9829 27.9829 62.9829 27.9829 27.9829 27.9829 27.9829 27.9829 27.9829 27.9829 27.9829 27.9829 27.9829 27.9829 27.9829 59.9829 27.9829 27.9829 27.9829 27.9829 27.9829 27.9829 27.9829 27.9829 27.9829 27.9829 27.9829 27.9829 27.9829 27.9829 27.9829 27.9829 35.9829 27.9829 27.9829 27.9829 27.9829 27.9829 27.9829 27.9829 27.9829 694.983 27.9829 27.9829 27.9829 27.9829 27.9829 27.9829 27.9829 27.9829 27.9829 27.9829 27.9829 27.9829 27.9829 132.983 27.9829 27.9829 27.9829 27.9829 27.9829 71.9829 27.9829 27.9829 27.9829 27.9829 88.9829 27.9829 27.9829 27.9829 27.9829 27.9829 27.9829 27.9829 27.9829 27.9829 27.9829 27.9829 27.9829 27.9829 27.9829 27.9829 27.9829 27.9829 27.9829 27.9829 27.9829 27.9829 27.9829 27.9829 27.9829 27.9829 27.9829 27.9829 27.9829 27.9829 27.9829 27.9829 27.9829 27.9829 27.9829 27.9829 27.9829 27.9829 27.9829 27.9829 27.9829 27.9829 27.9829 27.9829 27.9829 27.9829 292.983 27.9829 27.9829 27.9829 27.9829 27.9829 27.9829 27.9829 27.9829 27.9829 27.9829 27.9829 27.9829 27.9829 27.9829 27.9829 27.9829 27.9829 27.9829 27.9829 27.9829 27.9829 27.9829 307.983 27.9829 27.9829 27.9829 27.9829 27.9829 27.9829 27.9829 27.9829 27.9829 515.983 27.9829 27.9829 27.9829 27.9829 75.9829 27.9829 27.9829 27.9829 27.9829 27.9829 27.9829 27.9829 27.9829 27.9829 27.9829 27.9829 27.9829 27.9829 27.9829 27.9829 27.9829 54.9829 27.9829 138.983 87.9829 27.9829 27.9829 27.9829 27.9829 27.9829 27.9829 27.9829 27.9829 27.9829 41.9829 27.9829 41.9829 27.9829 27.9829 27.9829 27.9829 27.9829 27.9829 27.9829 27.9829 27.9829 27.9829 27.9829 27.9829 27.9829 27.9829 27.9829 27.9829 27.9829 27.9829 27.9829 27.9829 27.9829 27.9829 27.9829 27.9829 27.9829 27.9829 27.9829 27.9829 27.9829 27.9829 27.9829 27.9829 27.9829 27.9829 39.9829 27.9829 27.9829 27.9829 27.9829 27.9829 27.9829 27.9829 27.9829 27.9829 117.983 198.983 63.9829 27.9829 39.9829 49.9829 35.9829 27.9829 27.9829 27.9829 27.9829 27.9829 27.9829 35.9829 27.9829 28.9829 27.9829 27.9829 27.9829 27.9829 27.9829 27.9829 27.9829 27.9829 27.9829 27.9829 27.9829 27.9829 27.9829 27.9829 27.9829 27.9829 27.9829 27.9829 35.9829 27.9829 27.9829 27.9829 27.9829 27.9829 27.9829 27.9829 27.9829 153.983 27.9829 27.9829 27.9829 27.9829 27.9829 27.9829 27.9829 27.9829 27.9829 27.9829 80.9829 27.9829 27.9829 27.9829 27.9829 27.9829 433.983 27.9829 27.9829 27.9829 27.9829 27.9829 27.9829 27.9829 27.9829 27.9829 27.9829 27.9829 27.9829 27.9829 27.9829 27.9829 27.9829 27.9829 27.9829 27.9829 27.9829 31.9829 27.9829 27.9829 27.9829 29.9829 27.9829 27.9829 27.9829 65.9829 27.9829 478.983 27.9829 27.9829 27.9829 27.9829 27.9829 27.9829 27.9829 27.9829 27.9829 27.9829 27.9829 27.9829 27.9829 27.9829 27.9829 27.9829 380.983 27.9829 27.9829 27.9829 27.9829 27.9829 27.9829 27.9829 27.9829 27.9829 27.9829 27.9829 27.9829 27.9829 27.9829 27.9829 27.9829 27.9829 27.9829 27.9829 27.9829 27.9829 27.9829 27.9829 27.9829 27.9829 27.9829 27.9829 27.9829 27.9829 27.9829 27.9829 27.9829 27.9829 27.9829 27.9829 75.9829 27.9829 27.9829 27.9829 27.9829 27.9829 27.9829 27.9829 27.9829 27.9829 27.9829 27.9829 27.9829 27.9829 27.9829 27.9829 27.9829 27.9829 27.9829 27.9829 27.9829 27.9829 34.9829 27.9829 27.9829 27.9829 27.9829 27.9829 27.9829 27.9829 27.9829 27.9829 27.9829 27.9829 27.9829 27.9829 73.9829 27.9829 27.9829 27.9829 27.9829 27.9829 55.9829 27.9829 27.9829 27.9829 27.9829 27.9829 27.9829 27.9829 27.9829 27.9829 27.9829 27.9829 27.9829 27.9829 27.9829 27.9829 27.9829 27.9829 27.9829 27.9829 27.9829 27.9829 27.9829 27.9829 27.9829 27.9829 27.9829 27.9829 27.9829 27.9829 27.9829 27.9829 27.9829 32.9829 27.9829 27.9829 27.9829 27.9829 27.9829 27.9829 27.9829 27.9829 27.9829 27.9829 27.9829 27.9829 27.9829 27.9829 27.9829 27.9829 27.9829 27.9829 27.9829 27.9829 27.9829 27.9829 27.9829 27.9829 27.9829 27.9829 27.9829 27.9829 27.9829 27.9829 27.9829 27.9829 27.9829 27.9829 27.9829 27.9829 27.9829 28.9829 27.9829 27.9829 27.9829 27.9829 27.9829 27.9829 27.9829 27.9829 27.9829 27.9829 27.9829 27.9829 27.9829 27.9829 27.9829 27.9829 27.9829 27.9829 27.9829 27.9829 27.9829 27.9829 27.9829 27.9829 27.9829 27.9829 36.9829 27.9829 27.9829 27.9829 27.9829 27.9829 27.9829 27.9829 27.9829 27.9829 27.9829 27.9829 27.9829 27.9829 27.9829 27.9829 27.9829 27.9829 27.9829 27.9829 27.9829 27.9829 27.9829 28.9829 47.9829 30.9829 52.9829 29.9829 27.9829 27.9829 27.9829 28.9829 27.9829 27.9829 27.9829 27.9829 27.9829 27.9829 27.9829 27.9829 27.9829 27.9829 27.9829 27.9829 27.9829 27.9829 27.9829 27.9829 27.9829 27.9829 27.9829 27.9829 27.9829 45.9829 27.9829 27.9829 58.9829 27.9829 27.9829 27.9829 27.9829 27.9829 33.9829 27.9829 27.9829 27.9829 27.9829 27.9829 27.9829 27.9829 27.9829 27.9829 36.9829 27.9829 27.9829 27.9829 27.9829 27.9829 27.9829 33.9829 27.9829 27.9829 27.9829 27.9829 27.9829 27.9829 40.9829 27.9829 27.9829 27.9829 27.9829 27.9829 27.9829 27.9829 27.9829 27.9829 27.9829 27.9829 27.9829 27.9829 27.9829 27.9829 27.9829 27.9829 27.9829 27.9829 27.9829 27.9829 27.9829 530.983 27.9829 27.9829 27.9829 27.9829 27.9829 27.9829 162.983 27.9829 27.9829 27.9829 27.9829 27.9829 27.9829 27.9829 27.9829 27.9829 27.9829 27.9829 27.9829 27.9829 27.9829 27.9829 27.9829 27.9829 27.9829 27.9829 27.9829 27.9829 27.9829 27.9829 27.9829 27.9829 27.9829 27.9829 27.9829 27.9829 27.9829 27.9829 27.9829 27.9829 27.9829 27.9829 27.9829 27.9829 27.9829 27.9829 27.9829 27.9829 27.9829 27.9829 27.9829 27.9829 291.983 27.9829 27.9829 27.9829 27.9829 27.9829 27.9829 27.9829 34.9829 27.9829 27.9829 27.9829 27.9829 27.9829 27.9829 27.9829 27.9829 27.9829 27.9829 27.9829 27.9829 27.9829 27.9829 27.9829 53.9829 27.9829 27.9829 27.9829 27.9829 27.9829 27.9829 27.9829 27.9829 27.9829 27.9829 27.9829 27.9829 27.9829 27.9829 27.9829 27.9829 27.9829 27.9829 27.9829 35.9829 27.9829 27.9829 27.9829 27.9829 27.9829 27.9829 27.9829 30.9829 27.9829 27.9829 27.9829 27.9829 27.9829 27.9829 27.9829 27.9829 27.9829 27.9829 27.9829 27.9829 27.9829 27.9829 27.9829 27.9829 27.9829 27.9829 27.9829 27.9829 27.9829 27.9829 27.9829 27.9829 27.9829 27.9829 27.9829 27.9829 27.9829 27.9829 27.9829 27.9829 27.9829 27.9829 27.9829 27.9829 27.9829 27.9829 27.9829 27.9829 42.9829 27.9829 27.9829 27.9829 27.9829 27.9829 27.9829 27.9829 27.9829 27.9829 27.9829 27.9829 390.983 27.9829 27.9829 27.9829 27.9829 27.9829 27.9829 27.9829 27.9829 27.9829 27.9829 27.9829 27.9829 27.9829 27.9829 27.9829 27.9829 27.9829 27.9829 27.9829 27.9829 27.9829 27.9829 27.9829 27.9829 27.9829 27.9829 27.9829 27.9829 31.9829 27.9829 27.9829 27.9829 27.9829 27.9829 27.9829 27.9829 27.9829 27.9829 27.9829 27.9829 27.9829 27.9829 27.9829 27.9829 27.9829 27.9829 27.9829 27.9829 27.9829 27.9829 27.9829 27.9829 27.9829 27.9829 27.9829 27.9829 27.9829 27.9829 27.9829 27.9829 27.9829 27.9829 27.9829 27.9829 27.9829 27.9829 27.9829 27.9829 31.9829 27.9829 27.9829 27.9829 27.9829 27.9829 27.9829 27.9829 27.9829 27.9829 27.9829 27.9829 27.9829 27.9829 27.9829 27.9829 27.9829 27.9829 27.9829 27.9829 27.9829 27.9829 27.9829 27.9829 27.9829 27.9829 27.9829 27.9829 27.9829 27.9829 27.9829 27.9829 27.9829 27.9829 27.9829 27.9829 27.9829 27.9829 27.9829 27.9829 27.9829 27.9829 27.9829 28.9829 27.9829 27.9829 27.9829 27.9829 37.9829 27.9829 27.9829 39.9829 27.9829 27.9829 37.9829 27.9829 27.9829 29.9829 27.9829 27.9829 27.9829 27.9829 27.9829 30.9829 27.9829 27.9829 44.9829 27.9829 27.9829 27.9829 27.9829 27.9829 27.9829 27.9829 33.9829 27.9829 27.9829 27.9829 29.9829 27.9829 27.9829 27.9829 27.9829 27.9829 42.9829 27.9829 27.9829 30.9829 27.9829 27.9829 27.9829 27.9829 33.9829 27.9829 27.9829 27.9829 27.9829 27.9829 27.9829 27.9829 27.9829 27.9829 27.9829 27.9829 27.9829 27.9829 35.9829 27.9829 27.9829 27.9829 27.9829 27.9829 27.9829 27.9829 32.9829 27.9829 27.9829 27.9829 27.9829 27.9829 27.9829 27.9829 27.9829 27.9829 27.9829 436.983 27.9829 27.9829 27.9829 27.9829 27.9829 27.9829 27.9829 32.9829 27.9829 27.9829 27.9829 27.9829 27.9829 27.9829 27.9829 27.9829 27.9829 27.9829 516.983 27.9829 27.9829 27.9829 27.9829 27.9829 27.9829 27.9829 27.9829 27.9829 27.9829 27.9829 27.9829 27.9829 27.9829 27.9829 27.9829 27.9829 27.9829 27.9829 27.9829 27.9829 27.9829 27.9829 27.9829 27.9829 27.9829 27.9829 27.9829 27.9829 27.9829 27.9829 27.9829 27.9829 27.9829 27.9829 27.9829 27.9829 27.9829 27.9829 27.9829 27.9829 27.9829 27.9829 27.9829 27.9829 27.9829 27.9829 27.9829 27.9829 27.9829 27.9829 27.9829 27.9829 27.9829 27.9829 27.9829 27.9829 27.9829 27.9829 27.9829 27.9829 27.9829 27.9829 27.9829 27.9829 27.9829 27.9829 27.9829 27.9829 27.9829 27.9829 27.9829 27.9829 27.9829 27.9829 27.9829 27.9829 27.9829 27.9829 27.9829 27.9829 27.9829 27.9829 27.9829 27.9829 27.9829 27.9829 27.9829 27.9829 27.9829 27.9829 123.983 27.9829 27.9829 27.9829 27.9829 27.9829 27.9829 27.9829 27.9829 27.9829 27.9829 27.9829 27.9829 27.9829 27.9829 27.9829 27.9829 27.9829 27.9829 27.9829 27.9829 27.9829 27.9829 27.9829 27.9829 27.9829 27.9829 27.9829 27.9829 27.9829 27.9829 27.9829 27.9829 27.9829 27.9829 27.9829 27.9829 27.9829 27.9829 27.9829 27.9829 27.9829 27.9829 27.9829 27.9829 27.9829 91.9829 27.9829 27.9829 27.9829 27.9829 27.9829 27.9829 27.9829 27.9829 27.9829 27.9829 27.9829 27.9829 27.9829 27.9829 27.9829 27.9829 27.9829 27.9829 27.9829 27.9829 27.9829 27.9829 27.9829 27.9829 27.9829 27.9829 27.9829 27.9829 27.9829 27.9829 27.9829 27.9829 27.9829 28.9829 27.9829 27.9829 27.9829 27.9829 27.9829 27.9829 27.9829 27.9829 27.9829 60.9829 37.9829 27.9829 27.9829 27.9829 27.9829 27.9829 27.9829 27.9829 27.9829 27.9829 27.9829 27.9829 47.9829 28.9829 27.9829 57.9829 47.9829 27.9829 27.9829 27.9829 27.9829 27.9829 27.9829 27.9829 27.9829 27.9829 27.9829 27.9829 27.9829 27.9829 27.9829 27.9829 27.9829 27.9829 27.9829 27.9829 27.9829 27.9829 27.9829 27.9829 27.9829 27.9829 33.9829 29.9829 27.9829 27.9829 27.9829 27.9829 27.9829 27.9829 27.9829 27.9829 27.9829 27.9829 27.9829 27.9829 27.9829 27.9829 27.9829 27.9829 27.9829 27.9829 27.9829 27.9829 27.9829 27.9829 27.9829 27.9829 27.9829 27.9829 27.9829 27.9829 27.9829 27.9829 27.9829 27.9829 27.9829 27.9829 27.9829 27.9829 27.9829 27.9829 27.9829 27.9829 27.9829 27.9829 27.9829 27.9829 27.9829 27.9829 27.9829 27.9829 27.9829 27.9829 27.9829 27.9829 27.9829 27.9829 27.9829 27.9829 27.9829 27.9829 27.9829 27.9829 27.9829 27.9829 27.9829 27.9829 27.9829 27.9829 27.9829 27.9829 27.9829 150.983 27.9829 27.9829 27.9829 28.9829 27.9829 27.9829 27.9829 27.9829 27.9829 27.9829 27.9829 27.9829 27.9829 27.9829 27.9829 27.9829 27.9829 27.9829 27.9829 27.9829 27.9829 27.9829 27.9829 27.9829 27.9829 27.9829 27.9829 27.9829 27.9829 27.9829 27.9829 27.9829 27.9829 27.9829 27.9829 27.9829 27.9829 27.9829 27.9829 27.9829 27.9829 27.9829 27.9829 27.9829 27.9829 27.9829 27.9829 27.9829 27.9829 27.9829 27.9829 27.9829 27.9829 27.9829 27.9829 27.9829 27.9829 27.9829 27.9829 27.9829 27.9829 27.9829 27.9829 27.9829 27.9829 27.9829 27.9829 27.9829 27.9829 27.9829 27.9829 27.9829 27.9829 27.9829 27.9829 27.9829 27.9829 27.9829 27.9829 27.9829 27.9829 27.9829 27.9829 27.9829 52.9829 47.9829 27.9829 
rewards of Offsets elements: 0 0 0 2 2 3 0 1222 907 0 0 652 0 0 0 0 0 0 0 0 685 0 0 0 0 582 0 339 0 0 0 0 0 0 0 0 0 1 0 0 0 1 0 0 6 1 0 5 0 0 0 0 0 437 452 0 0 0 0 0 0 0 0 0 376 0 0 0 24 0 0 331 157 384 0 0 0 528 0 0 394 304 0 0 0 0 0 0 0 0 0 0 0 0 11 3 0 0 0 8 0 0 0 0 0 0 24 0 0 8 0 0 24 716 0 3 0 1148 0 0 0 0 0 1 0 0 0 0 0 0 0 0 0 0 0 18 0 0 12 0 0 4 0 0 12 0 0 10 0 0 6 0 0 6 0 0 1 0 2 0 0 0 0 0 1 0 0 13 0 0 4 0 0 0 0 0 0 0 0 0 0 0 0 0 0 0 1 334 0 0 0 0 0 0 0 0 0 0 0 0 0 0 2 0 0 505 44 0 0 61 0 0 0 0 0 0 0 0 0 0 0 0 0 39 267 0 0 0 0 0 459 0 0 0 206 0 0 0 0 0 0 0 0 0 0 0 0 0 0 0 0 0 0 0 0 0 0 0 0 0 0 0 0 0 0 0 0 0 0 0 0 0 0 0 0 0 0 0 50 0 0 0 382 20 9 80 0 0 0 0 0 0 0 0 469 0 0 0 171 603 0 0 0 0 0 20 0 0 0 0 0 0 0 0 0 0 0 0 0 0 16 0 0 0 0 0 0 0 0 0 0 0 0 0 0 0 0 0 0 0 0 0 0 0 0 0 0 294 0 0 0 0 0 268 0 0 0 0 0 2 15 0 0 0 0 0 0 0 0 0 0 0 202 0 0 0 0 0 0 0 0 0 0 0 0 0 0 0 0 274 0 0 0 0 0 0 0 0 0 0 0 0 0 0 0 0 0 0 0 0 0 0 0 0 0 0 0 0 0 0 0 0 0 0 0 0 0 0 0 0 0 0 0 0 0 0 0 0 0 0 0 0 0 0 0 0 0 0 0 0 0 0 0 0 0 0 0 0 1166 60 18 0 0 0 2 52 0 6 50 4 8 0 0 0 0 0 0 0 0 40 0 0 0 16 2 0 0 0 4 0 0 76 0 0 104 12 0 0 6 6 0 0 4 36 0 0 0 0 0 38 0 0 4 0 0 3 15 0 0 0 0 0 0 0 0 0 195 0 0 0 0 0 6 0 0 23 0 0 16 0 0 0 0 0 0 0 0 0 3 0 0 0 0 0 0 0 0 0 0 0 2 1 0 0 0 0 0 0 0 0 0 0 0 0 0 0 0 0 0 0 0 0 0 0 0 0 4 0 4 0 0 0 0 0 0 0 0 0 0 0 0 0 0 0 0 0 0 0 0 0 0 0 0 0 0 0 0 0 0 0 0 0 0 0 0 0 0 0 0 0 0 0 0 0 0 0 0 0 0 0 0 0 0 0 0 0 0 0 7 0 0 46 0 0 28 0 0 0 0 6 1 0 0 0 0 0 0 0 0 21 0 0 0 0 0 0 0 0 0 0 0 0 0 0 0 0 0 0 35 0 0 0 0 0 0 0 0 0 0 0 0 32 0 0 0 0 0 0 0 0 0 0 0 0 0 0 0 0 8 0 0 0 0 0 0 0 0 667 0 0 0 0 0 0 0 0 0 0 0 0 0 105 0 0 0 0 0 44 0 0 0 0 61 0 0 0 0 0 0 0 0 0 0 0 0 0 0 0 0 0 0 0 0 0 0 0 0 0 0 0 0 0 0 0 0 0 0 0 0 0 0 0 0 0 0 0 0 0 265 0 0 0 0 0 0 0 0 0 0 0 0 0 0 0 0 0 0 0 0 0 0 280 0 0 0 0 0 0 0 0 0 488 0 0 0 0 48 0 0 0 0 0 0 0 0 0 0 0 0 0 0 0 0 27 0 111 60 0 0 0 0 0 0 0 0 0 14 0 14 0 0 0 0 0 0 0 0 0 0 0 0 0 0 0 0 0 0 0 0 0 0 0 0 0 0 0 0 0 0 0 0 0 0 12 0 0 0 0 0 0 0 0 0 90 171 36 0 12 22 8 0 0 0 0 0 0 8 0 1 0 0 0 0 0 0 0 0 0 0 0 0 0 0 0 0 0 0 8 0 0 0 0 0 0 0 0 126 0 0 0 0 0 0 0 0 0 0 53 0 0 0 0 0 406 0 0 0 0 0 0 0 0 0 0 0 0 0 0 0 0 0 0 0 0 4 0 0 0 2 0 0 0 38 0 451 0 0 0 0 0 0 0 0 0 0 0 0 0 0 0 0 353 0 0 0 0 0 0 0 0 0 0 0 0 0 0 0 0 0 0 0 0 0 0 0 0 0 0 0 0 0 0 0 0 0 0 0 48 0 0 0 0 0 0 0 0 0 0 0 0 0 0 0 0 0 0 0 0 0 7 0 0 0 0 0 0 0 0 0 0 0 0 0 46 0 0 0 0 0 28 0 0 0 0 0 0 0 0 0 0 0 0 0 0 0 0 0 0 0 0 0 0 0 0 0 0 0 0 0 0 0 0 5 0 0 0 0 0 0 0 0 0 0 0 0 0 0 0 0 0 0 0 0 0 0 0 0 0 0 0 0 0 0 0 0 0 0 0 0 0 1 0 0 0 0 0 0 0 0 0 0 0 0 0 0 0 0 0 0 0 0 0 0 0 0 0 0 9 0 0 0 0 0 0 0 0 0 0 0 0 0 0 0 0 0 0 0 0 0 0 1 20 3 25 2 0 0 0 1 0 0 0 0 0 0 0 0 0 0 0 0 0 0 0 0 0 0 0 0 0 18 0 0 31 0 0 0 0 0 6 0 0 0 0 0 0 0 0 0 9 0 0 0 0 0 0 6 0 0 0 0 0 0 13 0 0 0 0 0 0 0 0 0 0 0 0 0 0 0 0 0 0 0 0 0 0 503 0 0 0 0 0 0 135 0 0 0 0 0 0 0 0 0 0 0 0 0 0 0 0 0 0 0 0 0 0 0 0 0 0 0 0 0 0 0 0 0 0 0 0 0 0 0 0 0 0 0 0 0 264 0 0 0 0 0 0 0 7 0 0 0 0 0 0 0 0 0 0 0 0 0 0 0 26 0 0 0 0 0 0 0 0 0 0 0 0 0 0 0 0 0 0 0 8 0 0 0 0 0 0 0 3 0 0 0 0 0 0 0 0 0 0 0 0 0 0 0 0 0 0 0 0 0 0 0 0 0 0 0 0 0 0 0 0 0 0 0 0 0 0 0 0 15 0 0 0 0 0 0 0 0 0 0 0 363 0 0 0 0 0 0 0 0 0 0 0 0 0 0 0 0 0 0 0 0 0 0 0 0 0 0 0 0 4 0 0 0 0 0 0 0 0 0 0 0 0 0 0 0 0 0 0 0 0 0 0 0 0 0 0 0 0 0 0 0 0 0 0 0 0 0 0 0 4 0 0 0 0 0 0 0 0 0 0 0 0 0 0 0 0 0 0 0 0 0 0 0 0 0 0 0 0 0 0 0 0 0 0 0 0 0 0 0 0 0 0 1 0 0 0 0 10 0 0 12 0 0 10 0 0 2 0 0 0 0 0 3 0 0 17 0 0 0 0 0 0 0 6 0 0 0 2 0 0 0 0 0 15 0 0 3 0 0 0 0 6 0 0 0 0 0 0 0 0 0 0 0 0 0 8 0 0 0 0 0 0 0 5 0 0 0 0 0 0 0 0 0 0 409 0 0 0 0 0 0 0 5 0 0 0 0 0 0 0 0 0 0 489 0 0 0 0 0 0 0 0 0 0 0 0 0 0 0 0 0 0 0 0 0 0 0 0 0 0 0 0 0 0 0 0 0 0 0 0 0 0 0 0 0 0 0 0 0 0 0 0 0 0 0 0 0 0 0 0 0 0 0 0 0 0 0 0 0 0 0 0 0 0 0 0 0 0 0 0 0 0 0 0 0 0 0 0 0 0 0 0 0 0 0 96 0 0 0 0 0 0 0 0 0 0 0 0 0 0 0 0 0 0 0 0 0 0 0 0 0 0 0 0 0 0 0 0 0 0 0 0 0 0 0 0 0 0 0 0 0 64 0 0 0 0 0 0 0 0 0 0 0 0 0 0 0 0 0 0 0 0 0 0 0 0 0 0 0 0 0 0 0 0 0 1 0 0 0 0 0 0 0 0 0 33 10 0 0 0 0 0 0 0 0 0 0 0 20 1 0 30 20 0 0 0 0 0 0 0 0 0 0 0 0 0 0 0 0 0 0 0 0 0 0 0 0 0 6 2 0 0 0 0 0 0 0 0 0 0 0 0 0 0 0 0 0 0 0 0 0 0 0 0 0 0 0 0 0 0 0 0 0 0 0 0 0 0 0 0 0 0 0 0 0 0 0 0 0 0 0 0 0 0 0 0 0 0 0 0 0 0 0 0 0 0 0 0 0 123 0 0 0 1 0 0 0 0 0 0 0 0 0 0 0 0 0 0 0 0 0 0 0 0 0 0 0 0 0 0 0 0 0 0 0 0 0 0 0 0 0 0 0 0 0 0 0 0 0 0 0 0 0 0 0 0 0 0 0 0 0 0 0 0 0 0 0 0 0 0 0 0 0 0 0 0 0 0 0 0 0 0 0 0 25 20 0 Printing Sanity3
offset_index value2061
offset list size2061
reward size2061
potential size2061
-----------------------------------------------------------------------------------------------------------------------------------------------------------------------------------------------------

DRAM Statistics
 CHANNEL 0
 RQ ROW_BUFFER_HIT:    1781651  ROW_BUFFER_MISS:    2046803
 DBUS_CONGESTED:       1929
 WQ ROW_BUFFER_HIT:     581476  ROW_BUFFER_MISS:    2030565  FULL:      66445

 AVG_CONGESTED_CYCLE: 3
 All warmup complete: 2
Channel 0 Bank busy for read cycles: 0
Channel 0 Bank busy for write cycles: 0
Channel 0
Rank 0
0banks busy for read cycles: 180767164
0banks busy for write cycles: 259175
1banks busy for read cycles: 33789336
1banks busy for write cycles: 36959158
2banks busy for read cycles: 14129878
2banks busy for write cycles: 13290085
3banks busy for read cycles: 17079573
3banks busy for write cycles: 6031615
4banks busy for read cycles: 9045327
4banks busy for write cycles: 3955132
5banks busy for read cycles: 6105102
5banks busy for write cycles: 3420031
6banks busy for read cycles: 11425167
6banks busy for write cycles: 3529390
7banks busy for read cycles: 4938282
7banks busy for write cycles: 6197070
8banks busy for read cycles: 14956990
8banks busy for write cycles: 36719731

CPU 0 Branch Prediction Accuracy: 99.9446% MPKI: 0.08483 Average ROB Occupancy at Mispredict: 123.752
Branch types
NOT_BRANCH: 169380952 84.6905%
BRANCH_DIRECT_JUMP: 1657270 0.828635%
BRANCH_INDIRECT: 9945376 4.97269%
BRANCH_CONDITIONAL: 12193387 6.09669%
BRANCH_DIRECT_CALL: 2818310 1.40915%
BRANCH_INDIRECT_CALL: 593130 0.296565%
BRANCH_RETURN: 3411486 1.70574%
BRANCH_OTHER: 0 0%

DRAM PAGES: 1048576
Allocated PAGES: 9332
