
*** ChampSim Multicore Out-of-Order Simulator ***

Warmup Instructions: 50000000
Simulation Instructions: 200000000
Number of CPUs: 1
LLC sets: 2048
LLC ways: 16
Off-chip DRAM Size: 4096 MB Channels: 1 Width: 64-bit Data Rate: 6400 MT/s
CPU 0 runs traces/spec2k17/srv_58.champsimtrace.xz
.xz
BTB has LRU replacement policy
ITLB has LRU replacement policy
DTLB has LRU replacement policy
STLB has LRU replacement policy
L1I has LRU replacement policy
L1D has LRU replacement policy
Initialize SRRIP state for L2C
Initialize DRRIP state for LLC
Heartbeat CPU 0 instructions: 10000001 cycles: 2794777 heartbeat IPC: 3.5781 cumulative IPC: 3.5781 (Simulation time: 0 hr 0 min 40 sec) 
Heartbeat CPU 0 instructions: 20000002 cycles: 5587989 heartbeat IPC: 3.58011 cumulative IPC: 3.57911 (Simulation time: 0 hr 1 min 19 sec) 
Heartbeat CPU 0 instructions: 30000003 cycles: 8609404 heartbeat IPC: 3.30971 cumulative IPC: 3.48456 (Simulation time: 0 hr 2 min 7 sec) 
*** Reached end of trace for Core: 0 Repeating trace: traces/spec2k17/srv_58.champsimtrace.xz
Heartbeat CPU 0 instructions: 40000003 cycles: 11427615 heartbeat IPC: 3.54835 cumulative IPC: 3.50029 (Simulation time: 0 hr 2 min 48 sec) 
Heartbeat CPU 0 instructions: 50000000 cycles: 14217405 heartbeat IPC: 3.5845 cumulative IPC: 3.51682 (Simulation time: 0 hr 3 min 28 sec) 

Warmup complete CPU 0 instructions: 50000004 cycles: 14217406 (Simulation time: 0 hr 3 min 28 sec) 

Offsets elements: 
Potential of Offsets elements: 
rewards of Offsets elements: 
Printing Sanity1
offset list size1494
Offsets elements: 
Potential of Offsets elements: 
rewards of Offsets elements: 0 203 0 1504 1570 1256 941 0 198 0 0 1421 645 546 49 40 18 9 0 68 15 120 858 1275 17 10 4 8 51 41 102 3 21 115 4 46 17 12 684 79 24 0 30 0 7 52 0 0 10 6 3 12 39 204 48 38 181 39 1 12 35 0 50 38 25 88 13 4 14 120 57 6 197 16 36 28 112 129 581 195 159 10 75 386 295 0 0 0 0 0 0 0 0 0 0 0 0 0 0 200 121 81 0 0 0 403 205 0 0 45 0 0 0 44 0 0 0 16 0 0 0 0 0 0 0 0 0 30 16 9 0 0 0 0 0 0 0 218 357 0 0 0 0 0 0 0 0 0 0 0 0 0 0 0 0 0 0 0 0 0 0 0 0 0 0 0 0 0 0 0 0 0 0 0 24 218 13 0 484 0 146 0 0 0 0 0 0 0 0 0 0 0 454 0 0 0 0 0 0 0 0 0 0 0 0 0 0 0 0 0 0 0 0 0 0 0 0 0 0 0 0 0 0 0 0 0 0 0 0 0 0 0 0 0 0 0 0 0 0 0 0 0 0 0 0 0 30 0 0 0 0 0 0 0 0 0 0 0 209 140 29 0 0 0 0 0 96 0 0 0 0 0 0 0 0 0 0 0 0 0 0 0 0 0 0 0 0 0 0 0 0 0 0 0 0 0 62 0 0 0 0 0 0 0 1988 0 0 0 0 0 0 0 0 0 0 0 0 0 0 0 0 0 0 0 0 0 0 0 0 0 0 0 0 0 532 0 0 0 0 0 0 0 0 0 0 0 0 0 0 0 0 0 0 0 0 0 0 0 65 40 0 0 0 0 0 0 8 0 0 2 37 36 48 36 0 0 54 48 48 19 38 0 39 20 38 82 24 4 0 10 32 48 50 46 0 0 16 12 36 0 12 0 5 12 12 2 10 5 0 0 0 24 6 10 4 0 29 8 12 36 25 0 1 6 16 0 34 0 0 0 0 0 0 0 0 0 138 0 0 0 0 0 0 0 0 170 328 258 0 0 89 32 121 42 72 0 148 236 106 171 0 0 0 0 0 0 0 0 0 0 0 1190 0 0 0 0 0 0 0 0 0 0 0 0 0 0 0 0 0 0 0 0 0 0 0 0 0 0 0 0 0 25 0 0 211 284 259 0 0 0 0 0 106 102 0 0 0 0 211 0 0 0 0 0 171 172 163 0 0 102 0 0 0 0 25 0 81 88 0 0 0 0 0 0 0 0 0 0 0 0 0 0 0 0 0 0 0 0 0 0 0 0 0 0 0 125 0 0 0 0 0 0 0 6 23 0 0 0 0 0 0 0 0 0 0 0 0 0 0 0 0 0 0 0 0 0 0 0 0 0 0 0 0 0 0 0 0 0 0 0 0 0 0 0 0 0 0 0 0 0 0 0 0 0 0 0 0 0 0 0 0 0 0 0 0 0 0 0 0 0 0 0 0 0 0 0 99 105 0 0 0 0 0 0 0 110 0 0 0 0 0 364 0 125 0 0 0 0 136 0 0 0 0 0 0 0 0 0 0 0 0 0 0 61 114 0 0 0 0 0 0 0 0 0 0 0 0 0 0 0 0 0 0 0 0 0 0 0 210 160 0 48 0 0 0 0 22 0 0 0 0 0 0 0 0 0 0 96 0 0 0 0 0 0 0 0 0 0 0 0 36 26 0 64 0 0 0 0 0 0 0 0 0 0 0 0 0 0 0 0 0 0 0 0 110 0 0 0 0 0 0 0 0 0 0 0 0 0 0 0 0 0 0 0 0 0 0 0 0 0 0 0 0 0 0 0 0 0 0 0 0 0 0 0 0 0 0 492 0 0 0 0 0 0 0 0 0 0 0 0 0 0 0 0 0 0 0 0 0 0 0 0 0 0 0 0 0 0 0 0 0 0 0 0 0 0 0 0 0 0 0 0 0 0 0 0 0 0 0 0 0 0 0 0 0 0 0 0 0 0 0 0 0 0 0 0 0 0 0 0 0 0 0 0 0 0 0 0 0 0 0 0 0 0 0 0 0 0 0 0 0 0 0 0 0 124 0 0 0 0 0 0 6 7 6 6 9 12 26 0 4 3 8 3 3 0 0 0 0 1 6 0 1 15 18 27 17 26 17 20 9 16 3 0 43 65 32 69 96 64 38 46 41 54 0 4 60 34 54 42 54 27 32 56 63 45 0 0 50 49 69 58 110 85 48 102 102 7 0 2 22 41 46 45 62 49 46 69 62 18 0 11 30 36 31 67 52 72 68 72 93 47 0 160 82 75 164 140 159 136 120 139 127 102 0 0 0 0 0 0 0 0 0 0 0 0 0 0 0 0 0 0 0 0 0 0 0 0 0 0 0 0 0 0 0 0 0 0 0 0 0 0 0 0 0 0 0 9 0 0 0 0 0 0 0 0 0 0 0 0 0 0 0 745 0 0 0 0 0 0 0 0 0 0 0 0 0 0 0 0 0 0 0 0 0 0 0 0 0 0 0 0 0 0 0 0 0 0 0 0 0 0 0 0 0 0 0 0 0 0 0 0 0 0 0 0 0 0 7 4 3 7 94 0 40 15 19 18 5 9 0 10 1 4 20 0 0 0 0 0 0 0 0 21 0 0 0 0 136 0 0 0 0 0 0 0 0 0 0 0 0 0 0 0 0 0 0 0 0 0 0 0 0 0 0 0 0 0 0 0 0 0 0 0 0 0 0 0 0 0 0 0 0 0 0 0 0 58 103 0 0 0 0 0 0 0 0 0 0 0 0 0 0 0 0 0 0 0 0 0 0 0 0 0 0 0 0 0 0 0 0 0 0 0 0 0 0 0 0 0 0 0 0 4 4 13 9 0 20 19 34 51 32 0 74 39 44 62 31 61 44 45 34 54 32 0 37 55 42 30 56 95 85 72 107 54 5 0 15 53 53 42 57 60 45 57 49 76 3 0 53 66 71 65 83 147 87 65 0 0 0 0 0 0 0 0 0 0 0 0 0 0 0 0 195 0 0 0 0 0 0 0 0 0 0 0 0 0 0 0 0 0 0 0 0 0 0 0 0 0 0 0 0 0 0 0 0 0 0 4 3 0 9 2 0 0 0 0 0 69 0 23 0 0 0 0 0 0 0 0 0 0 0 0 0 0 0 0 0 0 0 0 0 0 0 0 0 0 0 0 0 0 0 0 0 0 0 0 0 0 0 156 0 0 0 0 0 0 0 0 0 0 0 0 0 0 0 0 0 0 0 0 0 0 0 0 0 0 0 0 0 0 0 0 0 0 0 0 0 83 73 0 0 0 0 0 0 0 0 0 0 0 0 0 0 0 0 0 0 0 91 0 0 0 0 0 0 0 0 0 44 0 0 0 0 82 0 0 0 0 0 0 0 0 
Printing Sanity2
Heartbeat CPU 0 instructions: 60000000 cycles: 25393820 heartbeat IPC: 0.894741 cumulative IPC: 0.894741 (Simulation time: 0 hr 4 min 28 sec) 
*** Reached end of trace for Core: 0 Repeating trace: traces/spec2k17/srv_58.champsimtrace.xz
Heartbeat CPU 0 instructions: 70000000 cycles: 42554025 heartbeat IPC: 0.582744 cumulative IPC: 0.7058 (Simulation time: 0 hr 5 min 24 sec) 
Heartbeat CPU 0 instructions: 80000003 cycles: 61082598 heartbeat IPC: 0.539707 cumulative IPC: 0.640134 (Simulation time: 0 hr 6 min 20 sec) 
Heartbeat CPU 0 instructions: 90000001 cycles: 73322745 heartbeat IPC: 0.816983 cumulative IPC: 0.676758 (Simulation time: 0 hr 7 min 20 sec) 
*** Reached end of trace for Core: 0 Repeating trace: traces/spec2k17/srv_58.champsimtrace.xz
Heartbeat CPU 0 instructions: 100000002 cycles: 89307653 heartbeat IPC: 0.62559 cumulative IPC: 0.665865 (Simulation time: 0 hr 8 min 19 sec) 
Heartbeat CPU 0 instructions: 110000000 cycles: 108117772 heartbeat IPC: 0.531629 cumulative IPC: 0.638975 (Simulation time: 0 hr 9 min 16 sec) 
Heartbeat CPU 0 instructions: 120000001 cycles: 121121016 heartbeat IPC: 0.769039 cumulative IPC: 0.654795 (Simulation time: 0 hr 10 min 16 sec) 
*** Reached end of trace for Core: 0 Repeating trace: traces/spec2k17/srv_58.champsimtrace.xz
Heartbeat CPU 0 instructions: 130000000 cycles: 136225228 heartbeat IPC: 0.662067 cumulative IPC: 0.655696 (Simulation time: 0 hr 11 min 16 sec) 
Heartbeat CPU 0 instructions: 140000000 cycles: 154905027 heartbeat IPC: 0.535338 cumulative IPC: 0.639715 (Simulation time: 0 hr 12 min 12 sec) 
Heartbeat CPU 0 instructions: 150000003 cycles: 168884296 heartbeat IPC: 0.715345 cumulative IPC: 0.646551 (Simulation time: 0 hr 13 min 9 sec) 
*** Reached end of trace for Core: 0 Repeating trace: traces/spec2k17/srv_58.champsimtrace.xz
Heartbeat CPU 0 instructions: 160000000 cycles: 183073982 heartbeat IPC: 0.704737 cumulative IPC: 0.65144 (Simulation time: 0 hr 14 min 6 sec) 
Heartbeat CPU 0 instructions: 170000000 cycles: 201821175 heartbeat IPC: 0.533413 cumulative IPC: 0.639646 (Simulation time: 0 hr 15 min 6 sec) 
Heartbeat CPU 0 instructions: 180000000 cycles: 216604564 heartbeat IPC: 0.676435 cumulative IPC: 0.642333 (Simulation time: 0 hr 16 min 5 sec) 
*** Reached end of trace for Core: 0 Repeating trace: traces/spec2k17/srv_58.champsimtrace.xz
Heartbeat CPU 0 instructions: 190000000 cycles: 229859773 heartbeat IPC: 0.75442 cumulative IPC: 0.649223 (Simulation time: 0 hr 17 min 5 sec) 
Heartbeat CPU 0 instructions: 200000000 cycles: 248642372 heartbeat IPC: 0.532408 cumulative IPC: 0.639864 (Simulation time: 0 hr 18 min 3 sec) 
Heartbeat CPU 0 instructions: 210000002 cycles: 264400446 heartbeat IPC: 0.634595 cumulative IPC: 0.639532 (Simulation time: 0 hr 19 min 0 sec) 
*** Reached end of trace for Core: 0 Repeating trace: traces/spec2k17/srv_58.champsimtrace.xz
Heartbeat CPU 0 instructions: 220000000 cycles: 276868493 heartbeat IPC: 0.80205 cumulative IPC: 0.647246 (Simulation time: 0 hr 20 min 0 sec) 
Heartbeat CPU 0 instructions: 230000001 cycles: 295419161 heartbeat IPC: 0.539064 cumulative IPC: 0.64011 (Simulation time: 0 hr 20 min 57 sec) 
Heartbeat CPU 0 instructions: 240000003 cycles: 312173767 heartbeat IPC: 0.596851 cumulative IPC: 0.637677 (Simulation time: 0 hr 21 min 55 sec) 
*** Reached end of trace for Core: 0 Repeating trace: traces/spec2k17/srv_58.champsimtrace.xz
Heartbeat CPU 0 instructions: 250000000 cycles: 323556451 heartbeat IPC: 0.878527 cumulative IPC: 0.64654 (Simulation time: 0 hr 22 min 54 sec) 
Finished CPU 0 instructions: 200000000 cycles: 309339046 cumulative IPC: 0.64654 (Simulation time: 0 hr 22 min 54 sec) 

ChampSim completed all CPUs

Region of Interest Statistics

CPU 0 cumulative IPC: 0.64654 instructions: 200000000 cycles: 309339046
ITLB TOTAL     ACCESS:   36473256  HIT:   35953204  MISS:     520052  HIT %:    98.5742  MISS %:    1.42584   MPKI: 2.60026
ITLB LOAD TRANSLATION ACCESS:   36473256  HIT:   35953204  MISS:     520052  HIT %:    98.5742  MISS %:    1.42584   MPKI: 2.60026
ITLB PREFETCH  REQUESTED:          0  ISSUED:          0  USEFUL:          0  USELESS:          0
ITLB USEFUL LOAD PREFETCHES:          0 PREFETCH ISSUED TO LOWER LEVEL:          0  ACCURACY: -nan
ITLB TIMELY PREFETCHES:          0 LATE PREFETCHES: 0 DROPPED PREFETCHES: 0
ITLB PREFETCHES SAME FILL-ORIGIN LEVEL: 0 DIFFERENT FILL-ORIGIN LEVEL: 0
ITLB AVERAGE MISS LATENCY: 9.01323 cycles
ITLB RQ	ACCESS:   40847188	FORWARD:          0	MERGED:    4205723	TO_CACHE:   36641465

DTLB TOTAL     ACCESS:   43228422  HIT:   42576995  MISS:     651427  HIT %:    98.4931  MISS %:    1.50694   MPKI: 3.25713
DTLB LOAD TRANSLATION ACCESS:   43228422  HIT:   42576995  MISS:     651427  HIT %:    98.4931  MISS %:    1.50694   MPKI: 3.25713
DTLB PREFETCH  REQUESTED:          0  ISSUED:          0  USEFUL:          0  USELESS:          0
DTLB USEFUL LOAD PREFETCHES:          0 PREFETCH ISSUED TO LOWER LEVEL:          0  ACCURACY: -nan
DTLB TIMELY PREFETCHES:          0 LATE PREFETCHES: 0 DROPPED PREFETCHES: 0
DTLB PREFETCHES SAME FILL-ORIGIN LEVEL: 0 DIFFERENT FILL-ORIGIN LEVEL: 0
DTLB AVERAGE MISS LATENCY: 9.03986 cycles
DTLB RQ	ACCESS:   59536881	FORWARD:          0	MERGED:   16279101	TO_CACHE:   43257780

STLB TOTAL     ACCESS:    2881963  HIT:    2881425  MISS:        538  HIT %:    99.9813  MISS %:  0.0186678   MPKI: 0.00269
STLB LOAD TRANSLATION ACCESS:    1171479  HIT:    1170941  MISS:        538  HIT %:    99.9541  MISS %:  0.0459249   MPKI: 0.00269
STLB TRANSLATION FROM L1D PREFETCHER ACCESS:    1710484  HIT:    1710484  MISS:          0  HIT %:        100  MISS %:          0   MPKI: 0
STLB PREFETCH  REQUESTED:          0  ISSUED:          0  USEFUL:          0  USELESS:          0
STLB USEFUL LOAD PREFETCHES:          0 PREFETCH ISSUED TO LOWER LEVEL:          0  ACCURACY: -nan
STLB TIMELY PREFETCHES:          0 LATE PREFETCHES: 0 DROPPED PREFETCHES: 0
STLB PREFETCHES SAME FILL-ORIGIN LEVEL: 0 DIFFERENT FILL-ORIGIN LEVEL: 0
STLB AVERAGE MISS LATENCY: 52.9331 cycles
STLB RQ	ACCESS:    3577918	FORWARD:          0	MERGED:     695955	TO_CACHE:    2881963

STLB Hit, L1D data hit: 0
STLB Hit, L2C data hit: 0
STLB Hit, LLC data hit: 0
STLB Hit, LLC data miss: 0
STLB STLB hints to L2: 0
L1D TOTAL     ACCESS:   61592596  HIT:   60680630  MISS:     911966  HIT %:    98.5194  MISS %:    1.48064   MPKI: 4.55983
L1D LOAD      ACCESS:   38524637  HIT:   37887161  MISS:     637476  HIT %:    98.3453  MISS %:    1.65472   MPKI: 3.18738
L1D RFO       ACCESS:   20662298  HIT:   20408650  MISS:     253648  HIT %:    98.7724  MISS %:    1.22759   MPKI: 1.26824
L1D PREFETCH  ACCESS:    2405661  HIT:    2384819  MISS:      20842  HIT %:    99.1336  MISS %:   0.866373   MPKI: 0.10421
AGUS PREFETCH L1 MISS: 0
L1D PREFETCH  REQUESTED:    4883177  ISSUED:    4883177  USEFUL:       9935  USELESS:      10907
L1D USEFUL LOAD PREFETCHES:       9935 PREFETCH ISSUED TO LOWER LEVEL:      20975  ACCURACY: 47.3659
L1D TIMELY PREFETCHES:       9935 LATE PREFETCHES: 11 DROPPED PREFETCHES: 0
L1D PREFETCHES SAME FILL-ORIGIN LEVEL: 20975 DIFFERENT FILL-ORIGIN LEVEL: 0
L1D AVERAGE MISS LATENCY: 24562 cycles
L1D RQ	ACCESS:   53962171	FORWARD:          0	MERGED:   15200083	TO_CACHE:   38551285
L1D WQ	ACCESS:   21214489	FORWARD:     217194	MERGED:     228893	TO_CACHE:   20985596
L1D PQ	ACCESS:    2476738	FORWARD:          0	MERGED:      63908	TO_CACHE:    2406439

L1D UNIQUE REGIONS ACCESSED: 0
L1D REGIONS CONFLICTS: 0
L1D Cross Page Prefetch Requests: 59460
L1D Same Page Prefetch Requests: 2417278
L1D ROI Sum of L1D PQ occupancy: 29584081
L1D PREFETCHES PUSHED FROM L2C: 0
L1I TOTAL     ACCESS:   40498534  HIT:   38562434  MISS:    1936100  HIT %:    95.2193  MISS %:    4.78067   MPKI: 9.6805
L1I LOAD      ACCESS:   40498534  HIT:   38562434  MISS:    1936100  HIT %:    95.2193  MISS %:    4.78067   MPKI: 9.6805
L1I PREFETCH  REQUESTED:          0  ISSUED:          0  USEFUL:          0  USELESS:          0
L1I USEFUL LOAD PREFETCHES:          0 PREFETCH ISSUED TO LOWER LEVEL:          0  ACCURACY: -nan
L1I TIMELY PREFETCHES:          0 LATE PREFETCHES: 0 DROPPED PREFETCHES: 0
L1I PREFETCHES SAME FILL-ORIGIN LEVEL: 0 DIFFERENT FILL-ORIGIN LEVEL: 0
L1I AVERAGE MISS LATENCY: 18.0262 cycles
L1I RQ	ACCESS:   63949076	FORWARD:          0	MERGED:   23101888	TO_CACHE:   40847188

BTB TOTAL     ACCESS:   35033009  HIT:   31765673  MISS:    3267336  HIT %:    90.6736  MISS %:    9.32645   MPKI: 16.3367
BTB BRANCH_DIRECT_JUMP	ACCESS:    3530101  HIT:    3387873  MISS:     142228
BTB BRANCH_INDIRECT	ACCESS:   14433198  HIT:   13493749  MISS:     939449
BTB BRANCH_CONDITIONAL	ACCESS:    7608282  HIT:    7427963  MISS:     180319
BTB BRANCH_DIRECT_CALL	ACCESS:    2343708  HIT:    2092536  MISS:     251172
BTB BRANCH_INDIRECT_CALL	ACCESS:    2387048  HIT:    2184647  MISS:     202401
BTB BRANCH_RETURN	ACCESS:    4730672  HIT:    3178905  MISS:    1551767
BTB BRANCH_OTHER ACCESS:          0  HIT:          0  MISS:          0

L2C TOTAL     ACCESS:    3271594  HIT:    2827665  MISS:     443929  HIT %:    86.4308  MISS %:    13.5692   MPKI: 2.21964
L2C LOAD      ACCESS:    2573565  HIT:    2200155  MISS:     373410  HIT %:    85.4906  MISS %:    14.5094   MPKI: 1.86705
L2C DATA LOAD MPKI: 0.587115
L2C INSTRUCTION LOAD MPKI: 1.27994
L2C RFO       ACCESS:     253526  HIT:     197941  MISS:      55585  HIT %:    78.0752  MISS %:    21.9248   MPKI: 0.277925
L2C PREFETCH  ACCESS:      20975  HIT:      15986  MISS:       4989  HIT %:    76.2145  MISS %:    23.7855   MPKI: 0.024945
AGUS PREFETCH L1 MISS: 0
L2C DATA PREFETCH MPKI: 0.024945
L2C INSTRUCTION PREFETCH MPKI: 0
L2C WRITEBACK ACCESS:     422854  HIT:     413437  MISS:       9417  HIT %:     97.773  MISS %:    2.22701   MPKI: 0.047085
L2C LOAD TRANSLATION ACCESS:        674  HIT:        146  MISS:        528  HIT %:    21.6617  MISS %:    78.3383   MPKI: 0.00264
L2C PREFETCH  REQUESTED:          0  ISSUED:          0  USEFUL:         69  USELESS:       4857
L2C USEFUL LOAD PREFETCHES:         69 PREFETCH ISSUED TO LOWER LEVEL:       4989  ACCURACY: 1.38304
L2C TIMELY PREFETCHES:         69 LATE PREFETCHES: 0 DROPPED PREFETCHES: 0
L2C PREFETCHES SAME FILL-ORIGIN LEVEL: 0 DIFFERENT FILL-ORIGIN LEVEL: 0
L2C AVERAGE MISS LATENCY: 29.492 cycles
L2C RQ	ACCESS:    2827765	FORWARD:          0	MERGED:          0	TO_CACHE:    2827765
L2C WQ	ACCESS:     422854	FORWARD:          0	MERGED:          0	TO_CACHE:     422854
L2C PQ	ACCESS:      20975	FORWARD:          0	MERGED:          0	TO_CACHE:      20975

L2C Instructions Evicting Data 91152
L2C Translations Evicting Data 398
L2C Data Evicting Data 91304
L2C Instructions Evicting Instructions 164685
L2C Translations Evicting Instructions 130
L2C Data Evicting Instructions 86310
L2C Instructions Evicting Translations 150
L2C Translations Evicting Translations 0
L2C Data Evicting Translations 380
L2C Dense regions hint from L2: 0
PSCL5 TOTAL     ACCESS:        538  HIT:        538  MISS:          0  HIT %:        100  MISS %:          0   MPKI: 0
PSCL5 LOAD TRANSLATION ACCESS:        538  HIT:        538  MISS:          0  HIT %:        100  MISS %:          0   MPKI: 0
PSCL5 PREFETCH  REQUESTED:          0  ISSUED:          0  USEFUL:          0  USELESS:          0
PSCL5 USEFUL LOAD PREFETCHES:          0 PREFETCH ISSUED TO LOWER LEVEL:          0  ACCURACY: -nan
PSCL5 TIMELY PREFETCHES:          0 LATE PREFETCHES: 0 DROPPED PREFETCHES: 0
PSCL5 PREFETCHES SAME FILL-ORIGIN LEVEL: 0 DIFFERENT FILL-ORIGIN LEVEL: 0

PSCL4 TOTAL     ACCESS:        538  HIT:        538  MISS:          0  HIT %:        100  MISS %:          0   MPKI: 0
PSCL4 LOAD TRANSLATION ACCESS:        538  HIT:        538  MISS:          0  HIT %:        100  MISS %:          0   MPKI: 0
PSCL4 PREFETCH  REQUESTED:          0  ISSUED:          0  USEFUL:          0  USELESS:          0
PSCL4 USEFUL LOAD PREFETCHES:          0 PREFETCH ISSUED TO LOWER LEVEL:          0  ACCURACY: -nan
PSCL4 TIMELY PREFETCHES:          0 LATE PREFETCHES: 0 DROPPED PREFETCHES: 0
PSCL4 PREFETCHES SAME FILL-ORIGIN LEVEL: 0 DIFFERENT FILL-ORIGIN LEVEL: 0

PSCL3 TOTAL     ACCESS:        358  HIT:        319  MISS:         39  HIT %:    89.1061  MISS %:    10.8939   MPKI: 0.000195
PSCL3 LOAD TRANSLATION ACCESS:        358  HIT:        319  MISS:         39  HIT %:    89.1061  MISS %:    10.8939   MPKI: 0.000195
PSCL3 PREFETCH  REQUESTED:          0  ISSUED:          0  USEFUL:          0  USELESS:          0
PSCL3 USEFUL LOAD PREFETCHES:          0 PREFETCH ISSUED TO LOWER LEVEL:          0  ACCURACY: -nan
PSCL3 TIMELY PREFETCHES:          0 LATE PREFETCHES: 0 DROPPED PREFETCHES: 0
PSCL3 PREFETCHES SAME FILL-ORIGIN LEVEL: 0 DIFFERENT FILL-ORIGIN LEVEL: 0

PSCL2 TOTAL     ACCESS:        538  HIT:        441  MISS:         97  HIT %:    81.9703  MISS %:    18.0297   MPKI: 0.000485
PSCL2 LOAD TRANSLATION ACCESS:        538  HIT:        441  MISS:         97  HIT %:    81.9703  MISS %:    18.0297   MPKI: 0.000485
PSCL2 PREFETCH  REQUESTED:          0  ISSUED:          0  USEFUL:          0  USELESS:          0
PSCL2 USEFUL LOAD PREFETCHES:          0 PREFETCH ISSUED TO LOWER LEVEL:          0  ACCURACY: -nan
PSCL2 TIMELY PREFETCHES:          0 LATE PREFETCHES: 0 DROPPED PREFETCHES: 0
PSCL2 PREFETCHES SAME FILL-ORIGIN LEVEL: 0 DIFFERENT FILL-ORIGIN LEVEL: 0

LLC TOTAL     ACCESS:     511493  HIT:     511099  MISS:        394  HIT %:     99.923  MISS %:  0.0770294   MPKI: 0.00197
LLC LOAD      ACCESS:     373410  HIT:     373096  MISS:        314  HIT %:    99.9159  MISS %:  0.0840899   MPKI: 0.00157
LLC RFO       ACCESS:      55585  HIT:      55585  MISS:          0  HIT %:        100  MISS %:          0   MPKI: 0
LLC PREFETCH  ACCESS:       4989  HIT:       4919  MISS:         70  HIT %:    98.5969  MISS %:    1.40309   MPKI: 0.00035
AGUS PREFETCH L1 MISS: 0
LLC WRITEBACK ACCESS:      76981  HIT:      76977  MISS:          4  HIT %:    99.9948  MISS %: 0.00519609   MPKI: 2e-05
LLC LOAD TRANSLATION ACCESS:        528  HIT:        522  MISS:          6  HIT %:    98.8636  MISS %:    1.13636   MPKI: 3e-05
LLC PREFETCH  REQUESTED:          0  ISSUED:          0  USEFUL:          0  USELESS:          0
LLC USEFUL LOAD PREFETCHES:          0 PREFETCH ISSUED TO LOWER LEVEL:         70  ACCURACY: 0
LLC TIMELY PREFETCHES:          0 LATE PREFETCHES: 0 DROPPED PREFETCHES: 0
LLC PREFETCHES SAME FILL-ORIGIN LEVEL: 0 DIFFERENT FILL-ORIGIN LEVEL: 0
LLC AVERAGE MISS LATENCY: 144.67 cycles
LLC RQ	ACCESS:     429523	FORWARD:          0	MERGED:          0	TO_CACHE:     429523
LLC WQ	ACCESS:      76981	FORWARD:          0	MERGED:          0	TO_CACHE:      76981
LLC PQ	ACCESS:       4989	FORWARD:          0	MERGED:          0	TO_CACHE:       4989

LLC Dense regions hint to LLC: 0

RAW hits: 3386426
Loads Generated: 57348600
Loads sent to L1D: 53962171
Stores Generated: 21214489
Stores sent to L1D: 21214489
Major fault: 0 Minor fault: 1185
Allocated PAGES: 1185
ucb ended
-----------------------------------------------------------------------------------------------------------------------------------------------------------------------------------------------------
Offsets elements: -133 133 -131 1 -2 4 -1 129 -127 126 -122 2 -6 3 112 -118 114 -111 111 -109 110 -106 -4 5 103 -101 99 -96 97 -94 94 -92 89 -88 87 -85 82 -81 -3 78 -79 76 -77 74 -75 71 -73 69 -70 67 -68 65 -66 63 -64 61 -62 59 -60 57 -56 54 -53 52 -51 50 -49 49 -48 44 -47 42 -41 40 -39 38 -36 35 -34 33 -32 31 -30 29 -28 -220 -327850497 -6899500 6899506 58 -6899564 334750217 -334748517 -1700 6899534 -6899534 1700 334748517 -334750217 29097 -27626 27626 6870437 -6898063 6898063 -35 8 -6899507 6899505 27 6899535 327850682 -327850710 53 -1465146445687 1465146445628 -1465146427741 -17818 16707 1465146428844 849787489 -849787481 -1465146348329 9361502 -9458728 9458755 1465986774285 -1465996233115 2265 857 1465994131586 -1465984675880 1465136986785 -1465146445539 1465146445541 849787499 -849787500 15 -16 -1465146348317 1465136986816 -1465146348333 1465656151154 -519164323 534215791 -534215806 -1465146445892 1465146445907 -94362 -2851 17823 1465680643498 -1465136986789 -9458830 1465994131587 -1465984675881 1465136986788 534215807 -534215791 -1465146445530 1465680643500 -534215809 -1465680643532 79418 1465146348304 534215810 -534215807 -1465146445542 1465680661354 315571686 -315571688 -534215814 849787500 -849787497 75 86 -83 -1465146445551 1465996233040 -849787498 16 534215795 -534215794 -1465146445586 1465146445651 -1465146429375 1465146429383 -6899496 -1465139546132 23791599 1465115751409 6899502 -8 327654575 -327654574 327654577 -327654645 6899504 -1465146445931 3271 1465146442662 534215796 -1465680661352 1465146445551 534406656 315380833 -849787516 534406682 -534406682 -1465146445958 1465146445958 -1465146442678 1465680849580 -534406936 -6870804 -28669 541306187 -541304487 6899475 -6899475 6870378 -6870806 6870805 -6870805 541277517 -541277360 541277360 6870643 -1465146442645 1465146442644 541306409 -534406934 541304503 -541304503 6899469 -6870372 6870373 -6898002 6898004 541277533 -534406728 -6870799 6870800 -6870647 6870646 -1465139571840 1465139543171 541304708 -534406933 541304510 -541277113 6870372 -6897999 6898002 541277540 -541277383 541277383 -534406740 -1465139543171 1465139544871 -194 -534406745 -6899469 534406739 -534406744 -6897773 27397 -427 6870806 -6898003 541304743 -541277544 6870804 -1465139571998 541306408 541304516 -541277119 -6897998 541277546 -541277389 534406747 6870647 -6897775 541306216 -534406747 27198 541277389 -534406746 541306217 -541277120 6897998 -6870803 534406748 -534406742 1465680849579 -253 62 -534406743 534406742 -541304517 6898003 541277547 -541277390 6870642 6 534406743 -1465680852668 3280 1465680849326 -541277486 -6899474 541306218 541304518 -541304518 541277548 -541277391 541277391 -534406748 534406749 -1465146445924 1465139575120 541304455 -534406680 6897769 6899470 427 -428 27199 -6870643 6899474 -6870377 6870376 -6898004 -1465146445925 1465139546451 541306155 6897999 6870803 534406744 -534406749 534406745 -1465139575278 1465146445925 -541304455 6897775 -541304519 541277549 -541277392 541277392 -534406750 -1465680852669 -1465146442643 -534406655 -1465146445522 -849787517 34 -1465146446015 -3280 64 -63 254 -252 252 -251 249 -250 247 -248 246 -247 244 -245 242 -243 241 -242 239 -240 238 -236 233 -234 -231 228 -229 227 -228 225 -226 226 -224 222 -223 220 -221 219 217 -218 215 -216 214 -215 212 -213 213 -211 209 -210 208 -205 206 -202 203 -201 199 -200 197 -198 196 -197 194 -195 195 -193 191 -192 -61 -534406657 6899507 -1465146445934 1465139543156 29098 -29099 6899508 -1465146445610 -849787488 24 -1465146445635 -849787422 -1465146445701 1465146445694 534215731 -534215731 534215735 -534215734 -17 7 -10 -1465146445609 -849787432 47 125 -167 -124 -44 -126 -42 168 -155 -9 292 -1465146445906 -849787428 -6870894 -1465139574717 1465139574718 856658323 -856658323 -1465139574791 867 -3057 -1465996233040 1465146445901 849787139 -849787140 -1465146445900 1465146445906 849787134 -849787138 -1465146445751 1465996161211 177 -856586823 856586615 -849715041 -385 -6900324 29134 856586650 71674 -71709 -6900673 856615776 -386 -6900284 856615749 -849715460 -849787135 -6898181 27147 -1465139574903 16276 1465993722535 -847292872 12 -11 11 -6870940 6870940 -6870967 6871106 -6871106 -26 26 6870955 -1465146445793 1465139574833 6870946 13 -6870955 -6870954 -6870957 -1465139574836 1465146445793 -14 -25 25 -6870966 6870966 -12 -6900033 6900033 -1465146445767 1465146445798 -149 6870943 171 -172 -6900146 6900151 -6898198 6898198 -1465146446896 1465139548709 -27157 -1829 -1465139545884 14271 1465996218769 -1465996207826 1465139520499 -1465139545713 -6900192 2010 -1067 28214 -854191065 -1826 -1465139546860 1465139548687 3213723 -3211884 -1837 1849 -1726 41 -1465139545802 1465139575009 3184471 -3184471 3686286 -6898183 -27119 1701 -1701 -1697 6899852 -6899965 -1465139545941 -1465996232938 1465996161233 100 849715103 -856615773 6900277 849715433 -6900670 29096 6900281 -1465146445898 -1465996232900 -94756 94761 -94761 94755 -94755 94741 1465146445707 -1465146428054 7455 -25095 1465146445695 -1465146539040 118440 1465146420584 -1465146445695 -93342 118453 -25111 -1465146420568 -118466 118466 1465146420576 -93340 118459 -25119 -1465146420580 -118456 118456 -25115 -1465146420578 1465146420578 -93341 -118459 -25118 -1465146539036 -1465146428023 1465146428024 -1465146445834 1465146445898 849787142 -849787206 -1465146445908 866 -3291 235 21916 1465996211124 -1465996211086 8401 1465146415542 -1465146445897 -849787144 -849787142 28776 -28777 -1465139546051 -856686989 28668 -28668 -27198 -1471 -1465139574719 -6870758 856658320 -856685518 6898383 -6899963 -28776 28777 -28667 1465139546051 28670 856657892 -1465139575148 1465146445904 -6871183 -27200 856685518 -856685317 27154 6871032 -6871040 -1465139574870 -856658321 6899849 -6871180 428 6870752 -6898378 26969 6871230 -6871230 158 -158 6871180 -849787141 -6898175 -6871041 -856658319 -28670 -6871179 -6870752 -27199 6899958 -6871288 -26970 6898258 -6871289 6871179 1465146445899 849787141 -849787130 -6899860 1706 26962 -1465139575119 400 2880 1465996230160 -849787430 -52 -6899506 -1465139546564 282 1465139546280 -1465139528232 1465139528233 29099 -1465139575171 17840 -14925 -3151 1465146445810 -1465146427738 1465139557335 -1465115825652 46 1465122696009 -1465146427739 1465146427804 -1465146445651 -16243 1465139546057 856686983 23791598 1465115751410 6899492 -1465146445550 -849787491 68 -67 -6899575 -1465139547920 16417 1465139529803 -1465146445679 -1465146348105 15274192 -15371650 15371671 1465980861369 1465994135086 -1465994132821 15368622 1465131073869 -849787496 -1465146348089 15274196 1465131073894 97818 1465146348089 312603764 -1465459049294 2851 1465474097312 -1465474082341 1465146427692 327654649 -1465474100268 15371746 -15369481 1465994132822 -1465994131965 1465131073871 327654652 -327654634 -1465146445514 1465474082342 -327654651 327654650 -1465474082375 1465146427722 -1465146348076 1465474002729 -1465146445543 1465474100196 522132844 -522132845 -1465474100196 1465146445539 849787498 -849787483 327654637 195853 -327850489 -334554143 1465474296047 521936993 327850522 -1465474296446 1465139543173 334750245 -327850773 334750107 -327850632 -334750107 -5 6898000 -6870808 334721440 -334721439 159 334721280 -1465474296006 1465139574726 -327850638 -1465146442641 1465146442646 -6899473 6899472 327850771 -334721577 327850687 -334748462 -6898000 334721495 -327850687 -6870807 6870807 334721494 -1465474296061 334721577 -334750245 334748490 -334750190 334750190 -327850720 -6897770 6870374 27197 327850714 -334721522 334721522 -1465474296089 334721576 -334750244 334748503 -334750203 334721536 -327850728 -1465139574567 334721376 -327850734 334748510 -334750210 334721543 -327850735 334721383 -327850741 334748513 -334750213 327850738 -334748513 334721546 -334721545 334721545 -1465474296112 334748515 -334750215 334721548 -327850740 1465474296114 -334721388 334750244 334748516 -334748516 334721549 334721389 -327850747 1465474293415 -334749993 28666 334750216 -334750216 -1465474296115 327850741 -1465474296667 1465474293166 327850742 334721550 -327850742 -1465474296116 327850743 -1465474296668 1465139546453 334749995 -334748295 -334721549 327850747 -327850743 334748295 -327850520 -1465146442644 -327850522 28 1465474296668 255 -254 251 248 -249 245 -246 243 -244 237 -238 231 -232 -227 221 -222 218 207 -208 205 -206 -204 201 -196 192 -190 187 -188 185 -186 183 -184 181 -182 180 -179 174 -178 169 -170 167 -168 165 -166 163 -164 161 -162 -159 156 -157 -154 151 -152 149 -150 147 -148 145 -146 143 -144 141 -140 140 -138 134 -135 132 130 128 -129 123 121 -119 116 -117 -115 -113 108 105 -104 102 -100 101 -98 96 -97 -95 92 -93 -91 84 80 -57 -54 -46 45 43 -40 39 -38 36 -33 32 -31 30 -29 -327850496 327850497 6897834 6899564 -6897864 -334721120 -29097 1471 6870402 -6898028 6898036 -6899505 327850650 -327850658 -1465146445628 17887 -1465146428844 1465996216333 -97226 9458728 1465986774312 -1465986774285 1465994134708 -9456563 1465146443350 -1465136986785 1465136986784 -1465146442494 1465996229993 -1465146445907 97590 -97213 1465665609853 -1465665607002 14972 534215806 -1465680661425 9458828 -9456565 1465680659160 847689091 -1465994134605 3018 14805 1465146427725 -534215808 -1465146348306 -97236 -1465680661353 -1465146445626 1465139546090 1465146445701 -1465146429383 -14053 23792456 -23791599 1465139543008 6899503 -7 327654574 -1465139546427 1465680658457 1465680852207 -315380834 -534406683 541277741 -541306409 541304487 541277519 -541277106 541277535 -534406733 -6870642 534406735 -541277541 541277542 541304514 -541277117 -541277387 541277387 -429 541304745 -541277547 534406746 541277120 541277390 -541277740 -541306155 -541306217 -6870373 6870377 1465139571839 534406681 -541306218 541277550 1465139575119 -6870376 6899473 -27197 541304519 -6899470 -6870801 -541277550 541277551 1465146442643 1465146445523 534406683 -534406651 849787484 -849787423 1465680852670 -1465680849390 1465680849327 240 -241 -239 236 229 -230 230 224 -225 223 -217 -214 -207 200 198 -199 193 -534406656 1465146445934 -1465139543157 1465146442664 -6870460 -849787425 1465146446013 -1465146442733 -2880 1465146445637 849787422 -534215736 17 -18 1465146445608 849787432 -849787427 -6870893 6870894 -1465146446013 -1465146446122 1465139546564 -1465139528234 -18048 1465139575380 -1465139557331 1465139528231 -6899502 6899567 -1465146445639 18071 1465139557336 -1465139572256 14921 -17848 23749531 -23733255 23749544 -23749619 1465139546132 -1465996230850 23792455 -23791598 6899496 -6899494 -1465139546220 1465146445727 -6897807 6897804 -1465146429307 1465146429307 -97458 15371650 1465980861390 -1465980861369 1465978763340 -1465994135086 1465458951853 1465474082340 -327654649 -1465146348078 -97464 77 -78 327654636 334749996 -334749996 -327850523 849787516 -521936994 -334750247 28669 334748407 -334748407 -6870378 334721437 327850638 -327850637 334748462 -334750162 334721493 334721492 334721519 -327850714 -1465139574569 334721363 -327850721 334721575 334721534 334750210 334721541 334721544 -327850738 -1465474296114 334721547 28667 1465146442645 -334749995 -334721547 334721390 -327850748 -327850521 1465146445924 1465146442675 -327850429 1465474293167 -237 234 -235 232 -233 -219 216 179 -180 176 -169 166 164 -165 162 -163 -161 157 154 152 -153 150 -151 148 146 -147 144 -145 -143 139 137 136 -134 -130 127 -128 122 -123 119 -120 117 115 -116 113 -114 -112 109 -110 106 -108 104 -105 -103 60 51 -45 -43 -327850717 327850683 6898028 327850658 -1465474296337 1465146427741 -1465146445559 1465984675878 -1465994134708 -1465146442493 -1465680661698 377 1465146445515 -1465146442664 79390 1465146348302 -13 327654567 -327654643 327654644 -334554144 1465146445932 -1465146445555 1465680661352 -1465680658457 1465996230145 -534406684 -541306187 541277740 541306203 -6897769 534406741 -534406736 541306214 541277544 -534406741 -28827 -541277548 -541277739 541277486 1465139571840 -6897774 541306219 -541277122 -541277549 -1465146445923 -1465146442671 1465146445555 534406648 -534406650 1465680849390 210 -209 204 202 -203 1465139546427 -1465139543156 1465139575150 856657890 -1465146445613 -19 -1465146445710 1465996233115 -849787414 -849787384 289 1465146445612 -856658322 -1465139574792 1465146445900 849787138 -1465146445755 71678 -29134 856615784 -849715076 849786750 -849715103 849715041 -849715425 849715462 -849715461 -6900288 6900673 -856687420 2106 -1465139547756 1465993738811 -854163908 6871037 -1465146429663 1465146429676 -6870958 6871097 -6870946 -1465139574847 1465139574812 6870939 -6870952 1465139574845 6870948 6870958 14 6870957 -1465139545734 -6871107 6870934 6900150 -6898199 -1465139548709 1465139548699 27157 -28986 -25214 1465146445905 856687327 1056 -1465139547745 1465139547746 -1465139558627 -17217 1465139546860 1827 854191065 -854191055 1851 3211872 -3213598 -1465139545870 1465139545802 3213678 -3213569 6870758 -6899854 1672 -1672 27118 -1811 1810 -1465139546054 131 -69 -856615711 6900670 -1465139545617 1465139574716 -1465139574576 1465996232900 -1465996327656 -17640 -1465146420600 -118440 -1465146420584 -118453 118469 1465146420568 -93339 1465146420577 -1465146428024 -17810 -1465146445973 -160 19726 -1465996229984 18898 1465146423944 30355 1465146415541 849787144 -849787134 856658321 -856657892 -1465139547522 -6870756 -1581 -1465139574718 856686989 6871182 -6898382 6898187 -6871033 -1465139574878 -6898187 6898188 -6871034 
Potential of Offsets elements: 28.4364 231.436 28.4364 1532.44 1570.1 1284.44 969.436 28.4364 226.436 28.4364 28.4364 1449.44 673.436 574.436 77.4364 68.4364 46.4364 37.4364 28.4364 96.4364 43.4364 148.436 886.436 1303.44 45.4364 38.4364 32.4364 36.4364 79.4364 69.4364 130.436 31.4364 49.4364 143.436 32.4364 74.4364 45.4364 40.4364 712.436 107.436 52.4364 28.4364 58.4364 28.4364 35.4364 80.4364 28.4364 28.4364 38.4364 34.4364 31.4364 40.4364 67.4364 232.436 76.4364 66.4364 209.436 67.4364 29.4364 40.4364 63.4364 28.4364 78.4364 66.4364 53.4364 116.436 41.4364 32.4364 42.4364 148.436 85.4364 34.4364 225.436 44.4364 64.4364 56.4364 140.436 157.436 609.436 223.436 187.436 38.4364 103.436 414.436 323.436 28.4364 28.4364 28.4364 28.4364 28.4364 28.4364 28.4364 28.4364 28.4364 28.4364 28.4364 28.4364 28.4364 28.4364 228.436 149.436 109.436 28.4364 28.4364 28.4364 431.436 233.436 28.4364 28.4364 73.4364 28.4364 28.4364 28.4364 72.4364 28.4364 28.4364 28.4364 44.4364 28.4364 28.4364 28.4364 28.4364 28.4364 28.4364 28.4364 28.4364 28.4364 58.4364 44.4364 37.4364 28.4364 28.4364 28.4364 28.4364 28.4364 28.4364 28.4364 246.436 385.436 28.4364 28.4364 28.4364 28.4364 28.4364 28.4364 28.4364 28.4364 28.4364 28.4364 28.4364 28.4364 28.4364 28.4364 28.4364 28.4364 28.4364 28.4364 28.4364 28.4364 28.4364 28.4364 28.4364 28.4364 28.4364 28.4364 28.4364 28.4364 28.4364 28.4364 28.4364 28.4364 28.4364 28.4364 28.4364 52.4364 246.436 41.4364 28.4364 512.436 28.4364 174.436 28.4364 28.4364 28.4364 28.4364 28.4364 28.4364 28.4364 28.4364 28.4364 28.4364 28.4364 482.436 28.4364 28.4364 28.4364 28.4364 28.4364 28.4364 28.4364 28.4364 28.4364 28.4364 28.4364 28.4364 28.4364 28.4364 28.4364 28.4364 28.4364 28.4364 28.4364 28.4364 28.4364 28.4364 28.4364 28.4364 28.4364 28.4364 28.4364 28.4364 28.4364 28.4364 28.4364 28.4364 28.4364 28.4364 28.4364 28.4364 28.4364 28.4364 28.4364 28.4364 28.4364 28.4364 28.4364 28.4364 28.4364 28.4364 28.4364 28.4364 28.4364 28.4364 28.4364 28.4364 28.4364 58.4364 28.4364 28.4364 28.4364 28.4364 28.4364 28.4364 28.4364 28.4364 28.4364 28.4364 28.4364 237.436 168.436 57.4364 28.4364 28.4364 28.4364 28.4364 28.4364 124.436 28.4364 28.4364 28.4364 28.4364 28.4364 28.4364 28.4364 28.4364 28.4364 28.4364 28.4364 28.4364 28.4364 28.4364 28.4364 28.4364 28.4364 28.4364 28.4364 28.4364 28.4364 28.4364 28.4364 28.4364 28.4364 28.4364 28.4364 28.4364 28.4364 90.4364 28.4364 28.4364 28.4364 28.4364 28.4364 28.4364 28.4364 1109.48 28.4364 28.4364 28.4364 28.4364 28.4364 28.4364 28.4364 28.4364 28.4364 28.4364 28.4364 28.4364 28.4364 28.4364 28.4364 28.4364 28.4364 28.4364 28.4364 28.4364 28.4364 28.4364 28.4364 28.4364 28.4364 28.4364 28.4364 28.4364 28.4364 560.436 28.4364 28.4364 28.4364 28.4364 28.4364 28.4364 28.4364 28.4364 28.4364 28.4364 28.4364 28.4364 28.4364 28.4364 28.4364 28.4364 28.4364 28.4364 28.4364 28.4364 28.4364 28.4364 28.4364 93.4364 68.4364 28.4364 28.4364 28.4364 28.4364 28.4364 28.4364 36.4364 28.4364 28.4364 30.4364 65.4364 64.4364 76.4364 64.4364 28.4364 28.4364 82.4364 76.4364 76.4364 47.4364 66.4364 28.4364 67.4364 48.4364 66.4364 110.436 52.4364 32.4364 28.4364 38.4364 60.4364 76.4364 78.4364 74.4364 28.4364 28.4364 44.4364 40.4364 64.4364 28.4364 40.4364 28.4364 33.4364 40.4364 40.4364 30.4364 38.4364 33.4364 28.4364 28.4364 28.4364 52.4364 34.4364 38.4364 32.4364 28.4364 57.4364 36.4364 40.4364 64.4364 53.4364 28.4364 29.4364 34.4364 44.4364 28.4364 62.4364 28.4364 28.4364 28.4364 28.4364 28.4364 28.4364 28.4364 28.4364 28.4364 166.436 28.4364 28.4364 28.4364 28.4364 28.4364 28.4364 28.4364 28.4364 198.436 356.436 286.436 28.4364 28.4364 117.436 60.4364 149.436 70.4364 100.436 28.4364 176.436 264.436 134.436 199.436 28.4364 28.4364 28.4364 28.4364 28.4364 28.4364 28.4364 28.4364 28.4364 28.4364 28.4364 1218.44 28.4364 28.4364 28.4364 28.4364 28.4364 28.4364 28.4364 28.4364 28.4364 28.4364 28.4364 28.4364 28.4364 28.4364 28.4364 28.4364 28.4364 28.4364 28.4364 28.4364 28.4364 28.4364 28.4364 28.4364 28.4364 28.4364 28.4364 28.4364 28.4364 53.4364 28.4364 28.4364 239.436 312.436 287.436 28.4364 28.4364 28.4364 28.4364 28.4364 134.436 130.436 28.4364 28.4364 28.4364 28.4364 239.436 28.4364 28.4364 28.4364 28.4364 28.4364 199.436 200.436 191.436 28.4364 28.4364 130.436 28.4364 28.4364 28.4364 28.4364 53.4364 28.4364 109.436 116.436 28.4364 28.4364 28.4364 28.4364 28.4364 28.4364 28.4364 28.4364 28.4364 28.4364 28.4364 28.4364 28.4364 28.4364 28.4364 28.4364 28.4364 28.4364 28.4364 28.4364 28.4364 28.4364 28.4364 28.4364 28.4364 28.4364 28.4364 153.436 28.4364 28.4364 28.4364 28.4364 28.4364 28.4364 28.4364 34.4364 51.4364 28.4364 28.4364 28.4364 28.4364 28.4364 28.4364 28.4364 28.4364 28.4364 28.4364 28.4364 28.4364 28.4364 28.4364 28.4364 28.4364 28.4364 28.4364 28.4364 28.4364 28.4364 28.4364 28.4364 28.4364 28.4364 28.4364 28.4364 28.4364 28.4364 28.4364 28.4364 28.4364 28.4364 28.4364 28.4364 28.4364 28.4364 28.4364 28.4364 28.4364 28.4364 28.4364 28.4364 28.4364 28.4364 28.4364 28.4364 28.4364 28.4364 28.4364 28.4364 28.4364 28.4364 28.4364 28.4364 28.4364 28.4364 28.4364 28.4364 28.4364 28.4364 28.4364 28.4364 28.4364 28.4364 28.4364 28.4364 28.4364 28.4364 28.4364 28.4364 127.436 133.436 28.4364 28.4364 28.4364 28.4364 28.4364 28.4364 28.4364 138.436 28.4364 28.4364 28.4364 28.4364 28.4364 392.436 28.4364 153.436 28.4364 28.4364 28.4364 28.4364 164.436 28.4364 28.4364 28.4364 28.4364 28.4364 28.4364 28.4364 28.4364 28.4364 28.4364 28.4364 28.4364 28.4364 28.4364 89.4364 142.436 28.4364 28.4364 28.4364 28.4364 28.4364 28.4364 28.4364 28.4364 28.4364 28.4364 28.4364 28.4364 28.4364 28.4364 28.4364 28.4364 28.4364 28.4364 28.4364 28.4364 28.4364 28.4364 28.4364 238.436 188.436 28.4364 76.4364 28.4364 28.4364 28.4364 28.4364 50.4364 28.4364 28.4364 28.4364 28.4364 28.4364 28.4364 28.4364 28.4364 28.4364 28.4364 124.436 28.4364 28.4364 28.4364 28.4364 28.4364 28.4364 28.4364 28.4364 28.4364 28.4364 28.4364 28.4364 64.4364 54.4364 28.4364 92.4364 28.4364 28.4364 28.4364 28.4364 28.4364 28.4364 28.4364 28.4364 28.4364 28.4364 28.4364 28.4364 28.4364 28.4364 28.4364 28.4364 28.4364 28.4364 28.4364 28.4364 138.436 28.4364 28.4364 28.4364 28.4364 28.4364 28.4364 28.4364 28.4364 28.4364 28.4364 28.4364 28.4364 28.4364 28.4364 28.4364 28.4364 28.4364 28.4364 28.4364 28.4364 28.4364 28.4364 28.4364 28.4364 28.4364 28.4364 28.4364 28.4364 28.4364 28.4364 28.4364 28.4364 28.4364 28.4364 28.4364 28.4364 28.4364 28.4364 28.4364 28.4364 28.4364 28.4364 520.436 28.4364 28.4364 28.4364 28.4364 28.4364 28.4364 28.4364 28.4364 28.4364 28.4364 28.4364 28.4364 28.4364 28.4364 28.4364 28.4364 28.4364 28.4364 28.4364 28.4364 28.4364 28.4364 28.4364 28.4364 28.4364 28.4364 28.4364 28.4364 28.4364 28.4364 28.4364 28.4364 28.4364 28.4364 28.4364 28.4364 28.4364 28.4364 28.4364 28.4364 28.4364 28.4364 28.4364 28.4364 28.4364 28.4364 28.4364 28.4364 28.4364 28.4364 28.4364 28.4364 28.4364 28.4364 28.4364 28.4364 28.4364 28.4364 28.4364 28.4364 28.4364 28.4364 28.4364 28.4364 28.4364 28.4364 28.4364 28.4364 28.4364 28.4364 28.4364 28.4364 28.4364 28.4364 28.4364 28.4364 28.4364 28.4364 28.4364 28.4364 28.4364 28.4364 28.4364 28.4364 28.4364 28.4364 28.4364 28.4364 28.4364 28.4364 28.4364 28.4364 28.4364 28.4364 28.4364 28.4364 28.4364 152.436 28.4364 28.4364 28.4364 28.4364 28.4364 28.4364 34.4364 35.4364 34.4364 34.4364 37.4364 40.4364 54.4364 28.4364 32.4364 31.4364 36.4364 31.4364 31.4364 28.4364 28.4364 28.4364 28.4364 29.4364 34.4364 28.4364 29.4364 43.4364 46.4364 55.4364 45.4364 54.4364 45.4364 48.4364 37.4364 44.4364 31.4364 28.4364 71.4364 93.4364 60.4364 97.4364 124.436 92.4364 66.4364 74.4364 69.4364 82.4364 28.4364 32.4364 88.4364 62.4364 82.4364 70.4364 82.4364 55.4364 60.4364 84.4364 91.4364 73.4364 28.4364 28.4364 78.4364 77.4364 97.4364 86.4364 138.436 113.436 76.4364 130.436 130.436 35.4364 28.4364 30.4364 50.4364 69.4364 74.4364 73.4364 90.4364 77.4364 74.4364 97.4364 90.4364 46.4364 28.4364 39.4364 58.4364 64.4364 59.4364 95.4364 80.4364 100.436 96.4364 100.436 121.436 75.4364 28.4364 188.436 110.436 103.436 192.436 168.436 187.436 164.436 148.436 167.436 155.436 130.436 28.4364 28.4364 28.4364 28.4364 28.4364 28.4364 28.4364 28.4364 28.4364 28.4364 28.4364 28.4364 28.4364 28.4364 28.4364 28.4364 28.4364 28.4364 28.4364 28.4364 28.4364 28.4364 28.4364 28.4364 28.4364 28.4364 28.4364 28.4364 28.4364 28.4364 28.4364 28.4364 28.4364 28.4364 28.4364 28.4364 28.4364 28.4364 28.4364 28.4364 28.4364 28.4364 28.4364 37.4364 28.4364 28.4364 28.4364 28.4364 28.4364 28.4364 28.4364 28.4364 28.4364 28.4364 28.4364 28.4364 28.4364 28.4364 28.4364 773.436 28.4364 28.4364 28.4364 28.4364 28.4364 28.4364 28.4364 28.4364 28.4364 28.4364 28.4364 28.4364 28.4364 28.4364 28.4364 28.4364 28.4364 28.4364 28.4364 28.4364 28.4364 28.4364 28.4364 28.4364 28.4364 28.4364 28.4364 28.4364 28.4364 28.4364 28.4364 28.4364 28.4364 28.4364 28.4364 28.4364 28.4364 28.4364 28.4364 28.4364 28.4364 28.4364 28.4364 28.4364 28.4364 28.4364 28.4364 28.4364 28.4364 28.4364 28.4364 28.4364 28.4364 28.4364 35.4364 32.4364 31.4364 35.4364 122.436 28.4364 68.4364 43.4364 47.4364 46.4364 33.4364 37.4364 28.4364 38.4364 29.4364 32.4364 48.4364 28.4364 28.4364 28.4364 28.4364 28.4364 28.4364 28.4364 28.4364 49.4364 28.4364 28.4364 28.4364 28.4364 164.436 28.4364 28.4364 28.4364 28.4364 28.4364 28.4364 28.4364 28.4364 28.4364 28.4364 28.4364 28.4364 28.4364 28.4364 28.4364 28.4364 28.4364 28.4364 28.4364 28.4364 28.4364 28.4364 28.4364 28.4364 28.4364 28.4364 28.4364 28.4364 28.4364 28.4364 28.4364 28.4364 28.4364 28.4364 28.4364 28.4364 28.4364 28.4364 28.4364 28.4364 28.4364 28.4364 28.4364 28.4364 28.4364 28.4364 28.4364 28.4364 86.4364 131.436 28.4364 28.4364 28.4364 28.4364 28.4364 28.4364 28.4364 28.4364 28.4364 28.4364 28.4364 28.4364 28.4364 28.4364 28.4364 28.4364 28.4364 28.4364 28.4364 28.4364 28.4364 28.4364 28.4364 28.4364 28.4364 28.4364 28.4364 28.4364 28.4364 28.4364 28.4364 28.4364 28.4364 28.4364 28.4364 28.4364 28.4364 28.4364 28.4364 28.4364 28.4364 28.4364 28.4364 28.4364 32.4364 32.4364 41.4364 37.4364 28.4364 48.4364 47.4364 62.4364 79.4364 60.4364 28.4364 102.436 67.4364 72.4364 90.4364 59.4364 89.4364 72.4364 73.4364 62.4364 82.4364 60.4364 28.4364 65.4364 83.4364 70.4364 58.4364 84.4364 123.436 113.436 100.436 135.436 82.4364 33.4364 28.4364 43.4364 81.4364 81.4364 70.4364 85.4364 88.4364 73.4364 85.4364 77.4364 104.436 31.4364 28.4364 81.4364 94.4364 99.4364 93.4364 111.436 175.436 115.436 93.4364 28.4364 28.4364 28.4364 28.4364 28.4364 28.4364 28.4364 28.4364 28.4364 28.4364 28.4364 28.4364 28.4364 28.4364 28.4364 28.4364 223.436 28.4364 28.4364 28.4364 28.4364 28.4364 28.4364 28.4364 28.4364 28.4364 28.4364 28.4364 28.4364 28.4364 28.4364 28.4364 28.4364 28.4364 28.4364 28.4364 28.4364 28.4364 28.4364 28.4364 28.4364 28.4364 28.4364 28.4364 28.4364 28.4364 28.4364 28.4364 28.4364 28.4364 28.4364 32.4364 31.4364 28.4364 37.4364 30.4364 28.4364 28.4364 28.4364 28.4364 28.4364 97.4364 28.4364 51.4364 28.4364 28.4364 28.4364 28.4364 28.4364 28.4364 28.4364 28.4364 28.4364 28.4364 28.4364 28.4364 28.4364 28.4364 28.4364 28.4364 28.4364 28.4364 28.4364 28.4364 28.4364 28.4364 28.4364 28.4364 28.4364 28.4364 28.4364 28.4364 28.4364 28.4364 28.4364 28.4364 28.4364 28.4364 28.4364 28.4364 28.4364 28.4364 28.4364 184.436 28.4364 28.4364 28.4364 28.4364 28.4364 28.4364 28.4364 28.4364 28.4364 28.4364 28.4364 28.4364 28.4364 28.4364 28.4364 28.4364 28.4364 28.4364 28.4364 28.4364 28.4364 28.4364 28.4364 28.4364 28.4364 28.4364 28.4364 28.4364 28.4364 28.4364 28.4364 28.4364 28.4364 28.4364 28.4364 28.4364 28.4364 111.436 101.436 28.4364 28.4364 28.4364 28.4364 28.4364 28.4364 28.4364 28.4364 28.4364 28.4364 28.4364 28.4364 28.4364 28.4364 28.4364 28.4364 28.4364 28.4364 28.4364 119.436 28.4364 28.4364 28.4364 28.4364 28.4364 28.4364 28.4364 28.4364 28.4364 72.4364 28.4364 28.4364 28.4364 28.4364 110.436 28.4364 28.4364 28.4364 28.4364 28.4364 28.4364 28.4364 28.4364 
rewards of Offsets elements: 0 203 0 1504 1570 1256 941 0 198 0 0 1421 645 546 49 40 18 9 0 68 15 120 858 1275 17 10 4 8 51 41 102 3 21 115 4 46 17 12 684 79 24 0 30 0 7 52 0 0 10 6 3 12 39 204 48 38 181 39 1 12 35 0 50 38 25 88 13 4 14 120 57 6 197 16 36 28 112 129 581 195 159 10 75 386 295 0 0 0 0 0 0 0 0 0 0 0 0 0 0 200 121 81 0 0 0 403 205 0 0 45 0 0 0 44 0 0 0 16 0 0 0 0 0 0 0 0 0 30 16 9 0 0 0 0 0 0 0 218 357 0 0 0 0 0 0 0 0 0 0 0 0 0 0 0 0 0 0 0 0 0 0 0 0 0 0 0 0 0 0 0 0 0 0 0 24 218 13 0 484 0 146 0 0 0 0 0 0 0 0 0 0 0 454 0 0 0 0 0 0 0 0 0 0 0 0 0 0 0 0 0 0 0 0 0 0 0 0 0 0 0 0 0 0 0 0 0 0 0 0 0 0 0 0 0 0 0 0 0 0 0 0 0 0 0 0 0 30 0 0 0 0 0 0 0 0 0 0 0 209 140 29 0 0 0 0 0 96 0 0 0 0 0 0 0 0 0 0 0 0 0 0 0 0 0 0 0 0 0 0 0 0 0 0 0 0 0 62 0 0 0 0 0 0 0 1100 0 0 0 0 0 0 0 0 0 0 0 0 0 0 0 0 0 0 0 0 0 0 0 0 0 0 0 0 0 532 0 0 0 0 0 0 0 0 0 0 0 0 0 0 0 0 0 0 0 0 0 0 0 65 40 0 0 0 0 0 0 8 0 0 2 37 36 48 36 0 0 54 48 48 19 38 0 39 20 38 82 24 4 0 10 32 48 50 46 0 0 16 12 36 0 12 0 5 12 12 2 10 5 0 0 0 24 6 10 4 0 29 8 12 36 25 0 1 6 16 0 34 0 0 0 0 0 0 0 0 0 138 0 0 0 0 0 0 0 0 170 328 258 0 0 89 32 121 42 72 0 148 236 106 171 0 0 0 0 0 0 0 0 0 0 0 1190 0 0 0 0 0 0 0 0 0 0 0 0 0 0 0 0 0 0 0 0 0 0 0 0 0 0 0 0 0 25 0 0 211 284 259 0 0 0 0 0 106 102 0 0 0 0 211 0 0 0 0 0 171 172 163 0 0 102 0 0 0 0 25 0 81 88 0 0 0 0 0 0 0 0 0 0 0 0 0 0 0 0 0 0 0 0 0 0 0 0 0 0 0 125 0 0 0 0 0 0 0 6 23 0 0 0 0 0 0 0 0 0 0 0 0 0 0 0 0 0 0 0 0 0 0 0 0 0 0 0 0 0 0 0 0 0 0 0 0 0 0 0 0 0 0 0 0 0 0 0 0 0 0 0 0 0 0 0 0 0 0 0 0 0 0 0 0 0 0 0 0 0 0 0 99 105 0 0 0 0 0 0 0 110 0 0 0 0 0 364 0 125 0 0 0 0 136 0 0 0 0 0 0 0 0 0 0 0 0 0 0 61 114 0 0 0 0 0 0 0 0 0 0 0 0 0 0 0 0 0 0 0 0 0 0 0 210 160 0 48 0 0 0 0 22 0 0 0 0 0 0 0 0 0 0 96 0 0 0 0 0 0 0 0 0 0 0 0 36 26 0 64 0 0 0 0 0 0 0 0 0 0 0 0 0 0 0 0 0 0 0 0 110 0 0 0 0 0 0 0 0 0 0 0 0 0 0 0 0 0 0 0 0 0 0 0 0 0 0 0 0 0 0 0 0 0 0 0 0 0 0 0 0 0 0 492 0 0 0 0 0 0 0 0 0 0 0 0 0 0 0 0 0 0 0 0 0 0 0 0 0 0 0 0 0 0 0 0 0 0 0 0 0 0 0 0 0 0 0 0 0 0 0 0 0 0 0 0 0 0 0 0 0 0 0 0 0 0 0 0 0 0 0 0 0 0 0 0 0 0 0 0 0 0 0 0 0 0 0 0 0 0 0 0 0 0 0 0 0 0 0 0 0 124 0 0 0 0 0 0 6 7 6 6 9 12 26 0 4 3 8 3 3 0 0 0 0 1 6 0 1 15 18 27 17 26 17 20 9 16 3 0 43 65 32 69 96 64 38 46 41 54 0 4 60 34 54 42 54 27 32 56 63 45 0 0 50 49 69 58 110 85 48 102 102 7 0 2 22 41 46 45 62 49 46 69 62 18 0 11 30 36 31 67 52 72 68 72 93 47 0 160 82 75 164 140 159 136 120 139 127 102 0 0 0 0 0 0 0 0 0 0 0 0 0 0 0 0 0 0 0 0 0 0 0 0 0 0 0 0 0 0 0 0 0 0 0 0 0 0 0 0 0 0 0 9 0 0 0 0 0 0 0 0 0 0 0 0 0 0 0 745 0 0 0 0 0 0 0 0 0 0 0 0 0 0 0 0 0 0 0 0 0 0 0 0 0 0 0 0 0 0 0 0 0 0 0 0 0 0 0 0 0 0 0 0 0 0 0 0 0 0 0 0 0 0 7 4 3 7 94 0 40 15 19 18 5 9 0 10 1 4 20 0 0 0 0 0 0 0 0 21 0 0 0 0 136 0 0 0 0 0 0 0 0 0 0 0 0 0 0 0 0 0 0 0 0 0 0 0 0 0 0 0 0 0 0 0 0 0 0 0 0 0 0 0 0 0 0 0 0 0 0 0 0 58 103 0 0 0 0 0 0 0 0 0 0 0 0 0 0 0 0 0 0 0 0 0 0 0 0 0 0 0 0 0 0 0 0 0 0 0 0 0 0 0 0 0 0 0 0 4 4 13 9 0 20 19 34 51 32 0 74 39 44 62 31 61 44 45 34 54 32 0 37 55 42 30 56 95 85 72 107 54 5 0 15 53 53 42 57 60 45 57 49 76 3 0 53 66 71 65 83 147 87 65 0 0 0 0 0 0 0 0 0 0 0 0 0 0 0 0 195 0 0 0 0 0 0 0 0 0 0 0 0 0 0 0 0 0 0 0 0 0 0 0 0 0 0 0 0 0 0 0 0 0 0 4 3 0 9 2 0 0 0 0 0 69 0 23 0 0 0 0 0 0 0 0 0 0 0 0 0 0 0 0 0 0 0 0 0 0 0 0 0 0 0 0 0 0 0 0 0 0 0 0 0 0 0 156 0 0 0 0 0 0 0 0 0 0 0 0 0 0 0 0 0 0 0 0 0 0 0 0 0 0 0 0 0 0 0 0 0 0 0 0 0 83 73 0 0 0 0 0 0 0 0 0 0 0 0 0 0 0 0 0 0 0 91 0 0 0 0 0 0 0 0 0 44 0 0 0 0 82 0 0 0 0 0 0 0 0 Printing Sanity3
offset_index value1494
offset list size1494
reward size1494
potential size1494
-----------------------------------------------------------------------------------------------------------------------------------------------------------------------------------------------------

DRAM Statistics
 CHANNEL 0
 RQ ROW_BUFFER_HIT:         93  ROW_BUFFER_MISS:        297
 DBUS_CONGESTED:          0
 WQ ROW_BUFFER_HIT:          0  ROW_BUFFER_MISS:          0  FULL:          0

 AVG_CONGESTED_CYCLE: -
 All warmup complete: 2
Channel 0 Bank busy for read cycles: 0
Channel 0 Bank busy for write cycles: 0
Channel 0
Rank 0
0banks busy for read cycles: 309291103
0banks busy for write cycles: 0
1banks busy for read cycles: 46688
1banks busy for write cycles: 0
2banks busy for read cycles: 1256
2banks busy for write cycles: 0
3banks busy for read cycles: 0
3banks busy for write cycles: 0
4banks busy for read cycles: 0
4banks busy for write cycles: 0
5banks busy for read cycles: 0
5banks busy for write cycles: 0
6banks busy for read cycles: 0
6banks busy for write cycles: 0
7banks busy for read cycles: 0
7banks busy for write cycles: 0
8banks busy for read cycles: 0
8banks busy for write cycles: 0

CPU 0 Branch Prediction Accuracy: 99.8678% MPKI: 0.264215 Average ROB Occupancy at Mispredict: 41.5622
Branch types
NOT_BRANCH: 160022998 80.0115%
BRANCH_DIRECT_JUMP: 3530101 1.76505%
BRANCH_INDIRECT: 14433198 7.2166%
BRANCH_CONDITIONAL: 12551976 6.27599%
BRANCH_DIRECT_CALL: 2343708 1.17185%
BRANCH_INDIRECT_CALL: 2387048 1.19352%
BRANCH_RETURN: 4730672 2.36534%
BRANCH_OTHER: 0 0%

DRAM PAGES: 1048576
Allocated PAGES: 1185
