
*** ChampSim Multicore Out-of-Order Simulator ***

Warmup Instructions: 50000000
Simulation Instructions: 200000000
Number of CPUs: 1
LLC sets: 2048
LLC ways: 16
Off-chip DRAM Size: 4096 MB Channels: 1 Width: 64-bit Data Rate: 6400 MT/s
CPU 0 runs traces/spec2k17/srv_14.champsimtrace.xz
.xz
BTB has LRU replacement policy
ITLB has LRU replacement policy
DTLB has LRU replacement policy
STLB has LRU replacement policy
L1I has LRU replacement policy
L1D has LRU replacement policy
Initialize SRRIP state for L2C
Initialize DRRIP state for LLC
Heartbeat CPU 0 instructions: 10000003 cycles: 2844714 heartbeat IPC: 3.51529 cumulative IPC: 3.51529 (Simulation time: 0 hr 0 min 33 sec) 
Heartbeat CPU 0 instructions: 20000002 cycles: 5681744 heartbeat IPC: 3.52481 cumulative IPC: 3.52005 (Simulation time: 0 hr 1 min 8 sec) 
Heartbeat CPU 0 instructions: 30000001 cycles: 8517615 heartbeat IPC: 3.52625 cumulative IPC: 3.52211 (Simulation time: 0 hr 1 min 42 sec) 
*** Reached end of trace for Core: 0 Repeating trace: traces/spec2k17/srv_14.champsimtrace.xz
Heartbeat CPU 0 instructions: 40000000 cycles: 11353701 heartbeat IPC: 3.52599 cumulative IPC: 3.52308 (Simulation time: 0 hr 2 min 16 sec) 
Heartbeat CPU 0 instructions: 50000001 cycles: 14190377 heartbeat IPC: 3.52525 cumulative IPC: 3.52351 (Simulation time: 0 hr 2 min 49 sec) 

Warmup complete CPU 0 instructions: 50000001 cycles: 14190377 (Simulation time: 0 hr 2 min 49 sec) 

Offsets elements: 
Potential of Offsets elements: 
rewards of Offsets elements: 
Printing Sanity1
offset list size2337
Offsets elements: 
Potential of Offsets elements: 
rewards of Offsets elements: 0 0 0 1134 1513 420 0 0 793 508 582 0 0 0 0 0 825 0 0 0 0 427 0 245 0 0 0 0 0 2448 0 0 868 67 0 0 0 0 0 0 0 0 0 0 0 0 0 0 0 0 0 0 0 0 0 1260 0 0 0 0 0 0 0 0 0 0 0 0 0 0 0 0 0 0 0 0 0 0 0 0 0 0 0 0 0 0 0 0 0 0 81 12 0 43 0 56 20 0 0 0 0 53 0 0 146 405 0 0 0 0 0 0 0 0 0 0 0 6 0 199 0 0 0 0 0 0 0 0 0 939 0 0 0 0 0 0 0 0 0 0 364 0 48 143 36 0 1 1 0 1284 0 0 394 1282 0 0 0 707 731 0 0 0 0 200 0 0 0 0 0 0 0 0 0 0 0 0 0 0 838 21 46 0 0 44 0 0 0 116 2 1 0 0 0 0 1 8 0 0 0 0 0 0 424 0 0 0 0 0 0 4 15 0 0 0 0 32 0 0 0 0 0 0 49 0 0 0 0 0 0 0 0 64 528 0 0 0 0 0 0 0 0 0 10 0 0 249 0 81 0 0 0 0 0 0 0 0 0 0 0 0 0 98 558 0 0 18 392 251 0 0 0 0 0 315 668 0 0 0 0 0 0 121 49 0 0 0 434 0 0 0 0 0 44 0 0 0 0 0 0 0 0 0 0 0 0 0 0 58 0 141 36 63 1 180 20 2 4 0 0 8 0 0 0 0 0 0 0 0 0 0 0 0 0 5 0 0 17 7 0 9 0 0 0 0 186 52 18 0 0 0 0 138 0 108 0 0 0 102 14 0 0 0 0 0 0 0 0 0 0 0 0 0 0 0 0 0 0 0 0 205 0 0 0 0 0 0 0 0 0 0 0 0 0 240 0 0 0 0 0 0 20 0 0 0 0 0 0 18 0 0 0 47 0 0 1 0 0 0 0 0 0 1 0 0 0 0 0 0 0 51 63 0 0 0 57 0 0 0 0 0 0 0 11 0 0 0 0 0 0 0 0 0 0 0 0 0 0 0 0 0 0 0 0 42 0 0 0 0 0 0 0 0 2 0 0 0 0 0 0 0 0 0 0 0 264 0 0 12 4 0 0 0 0 0 0 0 0 0 0 0 0 0 90 0 0 0 0 0 0 0 0 0 0 0 0 0 0 0 0 0 0 0 0 0 1 64 49 0 0 0 1 0 0 0 0 0 0 0 0 0 0 0 0 0 0 0 0 0 0 0 0 0 0 0 21 0 0 0 0 0 0 0 0 0 0 0 0 0 6 0 0 0 8 0 0 0 0 0 0 0 0 0 0 51 82 120 0 0 0 0 0 0 254 0 0 1 0 0 0 0 0 0 1 423 0 0 0 0 0 0 18 14 9 108 29 0 0 2 0 0 0 0 0 0 0 0 0 0 0 0 0 0 0 0 0 0 0 13 0 0 0 0 0 0 0 0 0 0 0 0 105 0 0 0 10 5 0 0 0 0 0 0 0 0 0 0 0 0 0 0 0 0 477 0 0 0 0 0 0 516 0 0 0 0 4 307 16 74 0 0 0 0 0 197 0 0 0 0 0 0 0 0 0 0 0 0 0 0 0 0 367 0 0 0 0 0 0 0 276 0 0 0 0 0 0 0 431 185 292 54 0 0 0 0 0 0 120 0 0 0 0 0 0 294 0 0 0 0 0 0 0 0 0 0 0 0 0 119 0 0 0 0 0 0 0 0 0 0 9 8 0 0 0 225 0 0 0 0 0 0 0 0 0 0 0 0 0 0 0 0 0 0 0 0 0 0 0 0 0 0 0 0 0 0 0 0 0 0 0 0 42 100 0 0 0 0 0 0 0 0 0 0 0 0 0 0 0 0 0 0 0 0 0 0 0 0 0 0 0 0 0 0 0 0 0 0 0 0 0 0 0 0 0 84 0 0 0 0 0 0 0 0 0 0 0 0 0 0 0 0 0 0 0 0 13 0 0 0 0 0 0 0 0 0 0 0 0 0 0 0 0 0 0 0 0 14 8 0 0 0 0 0 0 0 0 0 0 0 0 0 0 0 0 0 0 0 0 0 0 0 0 0 0 0 0 0 0 0 0 0 0 0 0 0 0 0 0 118 3 0 0 0 0 0 0 0 0 0 0 0 0 0 0 0 0 0 0 0 0 0 0 0 16 0 0 0 0 0 0 0 0 0 0 0 0 0 0 0 0 654 0 0 0 0 0 0 0 0 0 0 0 0 0 0 0 0 0 0 0 0 0 30 0 20 0 0 0 0 0 0 0 0 0 0 0 0 0 0 0 0 0 0 0 0 0 0 0 0 0 0 0 0 0 0 0 0 0 0 0 0 0 0 0 0 0 0 0 0 0 0 0 0 0 44 9 0 0 0 0 0 0 0 0 0 0 0 0 0 0 0 0 46 1 8 0 0 0 0 0 0 0 0 0 0 0 0 0 0 0 0 0 0 0 6 23 0 0 0 0 0 0 0 0 0 0 0 0 0 0 0 0 0 0 0 0 0 0 0 0 0 0 0 0 0 0 0 0 0 0 0 0 0 0 0 0 0 23 0 0 0 0 0 0 0 0 0 0 0 0 0 0 0 0 0 0 0 0 2 202 0 0 0 0 0 0 0 0 0 0 0 0 0 0 44 0 0 0 0 28 35 0 0 0 0 0 0 0 0 0 4 0 0 0 0 0 0 0 0 0 4 172 0 14 0 0 0 0 0 0 0 0 0 0 0 0 0 0 0 0 0 0 25 0 0 0 0 0 0 0 0 0 296 0 0 0 0 0 0 0 0 0 0 0 0 0 0 0 0 0 0 0 0 298 0 0 0 0 0 0 0 0 0 9 18 140 0 0 0 0 0 0 0 0 0 0 0 0 0 0 0 0 0 0 0 0 0 0 0 0 0 0 0 0 0 0 0 0 0 0 0 0 0 0 0 0 0 0 0 0 0 0 0 0 0 0 0 0 14 0 0 0 0 0 0 0 0 0 0 0 0 0 0 24 0 0 4 0 0 0 0 0 0 0 0 0 0 0 0 0 0 0 0 5 0 0 0 0 0 0 5 0 0 39 0 0 0 283 0 0 0 0 0 0 0 0 0 0 148 0 0 0 0 0 0 8 0 1 4 0 0 0 0 0 0 0 0 0 0 3 0 0 18 46 0 0 0 0 0 729 0 0 0 0 0 0 0 0 0 0 0 0 0 0 0 195 0 0 0 0 344 0 0 0 205 0 0 0 0 14 0 0 0 0 0 0 0 0 0 0 0 0 2 0 0 0 0 0 0 0 3 89 69 0 0 0 0 0 0 296 0 0 0 12 36 6 0 0 42 0 0 0 0 0 0 0 0 0 0 0 0 0 0 172 0 0 0 0 0 0 0 0 0 0 0 0 0 0 0 0 0 0 0 0 4 0 0 0 0 0 0 0 0 0 0 0 0 0 0 0 0 0 0 0 216 108 0 0 0 0 0 0 0 0 0 0 0 0 0 0 0 0 0 0 0 0 0 54 0 0 223 0 0 0 0 0 0 0 0 0 0 0 0 0 16 40 0 56 0 0 0 0 0 0 0 1 0 0 0 0 0 0 0 0 0 0 0 0 82 315 0 0 0 0 0 0 0 0 0 0 0 0 0 0 0 0 0 0 0 0 8 0 0 54 0 0 256 0 0 0 0 0 0 0 0 0 0 0 0 0 0 944 0 0 0 0 0 0 0 289 14 0 0 0 0 0 0 71 0 0 0 0 935 0 0 0 0 0 0 0 0 0 0 0 0 0 0 0 0 0 0 0 6 110 0 0 0 0 0 0 0 286 3 0 0 0 0 0 0 0 0 0 0 0 98 0 0 0 0 0 2 0 0 0 0 0 0 0 0 0 0 0 0 0 0 944 0 0 0 0 0 0 0 0 0 0 0 0 0 0 0 0 0 0 0 18 206 0 0 0 0 0 0 0 0 0 0 0 0 0 0 0 0 0 0 0 24 137 0 0 0 0 0 0 0 0 0 0 0 0 0 0 0 0 0 0 0 28 30 0 0 0 0 0 0 0 0 0 0 0 0 0 0 0 15 4 0 36 41 0 0 0 0 0 0 0 0 0 0 0 0 0 4 0 0 0 0 0 0 0 0 0 0 0 0 0 0 0 0 0 0 2 0 0 0 0 0 12 17 24 0 0 0 0 0 0 0 0 0 0 0 0 0 0 0 0 0 0 0 15 0 0 8 306 0 0 0 0 0 0 0 0 0 0 0 0 0 0 35 370 0 4 0 0 0 0 0 0 0 0 0 0 0 0 0 121 0 0 0 0 10 0 0 0 0 211 6 0 352 0 0 0 0 0 0 0 0 0 0 0 126 7 1 0 18 0 14 0 7 0 0 0 0 0 0 0 0 0 5 0 0 0 0 0 0 0 0 0 0 0 0 0 0 0 0 0 0 0 0 0 0 0 61 0 0 24 0 0 0 0 0 0 0 0 0 0 0 0 0 225 0 0 0 0 0 0 0 0 0 9 0 0 0 0 0 0 251 0 0 0 0 0 75 162 28 0 0 1 0 0 0 0 0 0 0 0 0 0 0 0 0 0 0 0 0 0 0 0 0 0 0 14 12 0 0 0 0 0 0 0 0 0 0 0 0 0 0 0 0 0 0 0 0 0 0 0 0 0 0 0 6 0 0 6 0 0 0 5 0 0 0 0 0 0 0 0 0 460 0 0 6 2 0 0 0 126 0 0 0 0 5 0 0 0 0 0 0 0 0 0 0 0 0 0 6 52 0 0 0 0 0 0 0 0 27 47 0 1 0 0 0 28 76 0 0 0 0 0 0 0 0 0 0 0 0 0 0 0 6 0 0 0 0 0 0 0 360 0 0 0 21 0 0 0 0 0 0 0 0 0 302 0 0 4 0 0 0 0 156 0 0 0 0 0 0 0 0 0 0 0 0 0 0 0 0 0 0 0 63 0 0 0 0 0 0 0 0 0 1 0 0 30 25 0 0 0 0 0 0 99 0 0 0 0 0 0 0 0 0 0 0 27 0 0 0 0 0 0 0 0 0 0 0 0 0 0 0 0 0 0 6 0 1 0 0 0 0 0 0 0 0 0 130 0 0 0 0 0 0 0 1 0 0 0 0 74 0 0 0 0 63 0 0 0 0 0 0 0 0 0 0 0 0 0 0 0 0 0 0 0 0 0 0 0 0 0 0 0 0 0 0 0 48 132 27 40 0 0 0 0 0 0 0 0 0 13 0 0 0 0 0 0 13 0 0 0 0 0 
Printing Sanity2
Heartbeat CPU 0 instructions: 60000001 cycles: 46728256 heartbeat IPC: 0.307334 cumulative IPC: 0.307334 (Simulation time: 0 hr 3 min 57 sec) 
*** Reached end of trace for Core: 0 Repeating trace: traces/spec2k17/srv_14.champsimtrace.xz
Heartbeat CPU 0 instructions: 70000003 cycles: 79234886 heartbeat IPC: 0.30763 cumulative IPC: 0.307482 (Simulation time: 0 hr 5 min 2 sec) 
Heartbeat CPU 0 instructions: 80000002 cycles: 111696985 heartbeat IPC: 0.308052 cumulative IPC: 0.307671 (Simulation time: 0 hr 6 min 10 sec) 
Heartbeat CPU 0 instructions: 90000002 cycles: 144139648 heartbeat IPC: 0.308236 cumulative IPC: 0.307812 (Simulation time: 0 hr 7 min 15 sec) 
*** Reached end of trace for Core: 0 Repeating trace: traces/spec2k17/srv_14.champsimtrace.xz
Heartbeat CPU 0 instructions: 100000003 cycles: 176621679 heartbeat IPC: 0.307863 cumulative IPC: 0.307822 (Simulation time: 0 hr 8 min 20 sec) 
Heartbeat CPU 0 instructions: 110000000 cycles: 209043193 heartbeat IPC: 0.308437 cumulative IPC: 0.307925 (Simulation time: 0 hr 9 min 26 sec) 
Heartbeat CPU 0 instructions: 120000000 cycles: 241557877 heartbeat IPC: 0.307553 cumulative IPC: 0.307872 (Simulation time: 0 hr 10 min 31 sec) 
*** Reached end of trace for Core: 0 Repeating trace: traces/spec2k17/srv_14.champsimtrace.xz
Heartbeat CPU 0 instructions: 130000000 cycles: 273971951 heartbeat IPC: 0.308508 cumulative IPC: 0.307951 (Simulation time: 0 hr 11 min 36 sec) 
Heartbeat CPU 0 instructions: 140000001 cycles: 306498897 heartbeat IPC: 0.307437 cumulative IPC: 0.307894 (Simulation time: 0 hr 12 min 43 sec) 
Heartbeat CPU 0 instructions: 150000002 cycles: 338894468 heartbeat IPC: 0.308684 cumulative IPC: 0.307973 (Simulation time: 0 hr 13 min 51 sec) 
*** Reached end of trace for Core: 0 Repeating trace: traces/spec2k17/srv_14.champsimtrace.xz
Heartbeat CPU 0 instructions: 160000000 cycles: 371355485 heartbeat IPC: 0.308062 cumulative IPC: 0.307981 (Simulation time: 0 hr 14 min 57 sec) 
Heartbeat CPU 0 instructions: 170000001 cycles: 403804037 heartbeat IPC: 0.30818 cumulative IPC: 0.307997 (Simulation time: 0 hr 16 min 6 sec) 
Heartbeat CPU 0 instructions: 180000001 cycles: 436247506 heartbeat IPC: 0.308228 cumulative IPC: 0.308015 (Simulation time: 0 hr 17 min 12 sec) 
*** Reached end of trace for Core: 0 Repeating trace: traces/spec2k17/srv_14.champsimtrace.xz
Heartbeat CPU 0 instructions: 190000000 cycles: 468672449 heartbeat IPC: 0.308405 cumulative IPC: 0.308043 (Simulation time: 0 hr 18 min 16 sec) 
Heartbeat CPU 0 instructions: 200000000 cycles: 501162898 heartbeat IPC: 0.307783 cumulative IPC: 0.308026 (Simulation time: 0 hr 19 min 20 sec) 
Heartbeat CPU 0 instructions: 210000003 cycles: 533578353 heartbeat IPC: 0.308495 cumulative IPC: 0.308055 (Simulation time: 0 hr 20 min 24 sec) 
*** Reached end of trace for Core: 0 Repeating trace: traces/spec2k17/srv_14.champsimtrace.xz
Heartbeat CPU 0 instructions: 220000000 cycles: 565998678 heartbeat IPC: 0.308448 cumulative IPC: 0.308078 (Simulation time: 0 hr 21 min 32 sec) 
Heartbeat CPU 0 instructions: 230000000 cycles: 598464050 heartbeat IPC: 0.308021 cumulative IPC: 0.308075 (Simulation time: 0 hr 22 min 38 sec) 
Heartbeat CPU 0 instructions: 240000001 cycles: 630884477 heartbeat IPC: 0.308448 cumulative IPC: 0.308094 (Simulation time: 0 hr 23 min 47 sec) 
Heartbeat CPU 0 instructions: 250000001 cycles: 663289049 heartbeat IPC: 0.308598 cumulative IPC: 0.30812 (Simulation time: 0 hr 24 min 53 sec) 
Finished CPU 0 instructions: 200000000 cycles: 649098672 cumulative IPC: 0.30812 (Simulation time: 0 hr 24 min 53 sec) 

ChampSim completed all CPUs

Region of Interest Statistics

CPU 0 cumulative IPC: 0.30812 instructions: 200000000 cycles: 649098672
ITLB TOTAL     ACCESS:   35617830  HIT:   33394388  MISS:    2223442  HIT %:    93.7575  MISS %:     6.2425   MPKI: 11.1172
ITLB LOAD TRANSLATION ACCESS:   35617830  HIT:   33394388  MISS:    2223442  HIT %:    93.7575  MISS %:     6.2425   MPKI: 11.1172
ITLB PREFETCH  REQUESTED:          0  ISSUED:          0  USEFUL:          0  USELESS:          0
ITLB USEFUL LOAD PREFETCHES:          0 PREFETCH ISSUED TO LOWER LEVEL:          0  ACCURACY: -nan
ITLB TIMELY PREFETCHES:          0 LATE PREFETCHES: 0 DROPPED PREFETCHES: 0
ITLB PREFETCHES SAME FILL-ORIGIN LEVEL: 0 DIFFERENT FILL-ORIGIN LEVEL: 0
ITLB AVERAGE MISS LATENCY: 9.16091 cycles
ITLB RQ	ACCESS:   41866934	FORWARD:          0	MERGED:    5724917	TO_CACHE:   36142017

DTLB TOTAL     ACCESS:   45813497  HIT:   43810182  MISS:    2003315  HIT %:    95.6272  MISS %:    4.37276   MPKI: 10.0166
DTLB LOAD TRANSLATION ACCESS:   45813497  HIT:   43810182  MISS:    2003315  HIT %:    95.6272  MISS %:    4.37276   MPKI: 10.0166
DTLB PREFETCH  REQUESTED:          0  ISSUED:          0  USEFUL:          0  USELESS:          0
DTLB USEFUL LOAD PREFETCHES:          0 PREFETCH ISSUED TO LOWER LEVEL:          0  ACCURACY: -nan
DTLB TIMELY PREFETCHES:          0 LATE PREFETCHES: 0 DROPPED PREFETCHES: 0
DTLB PREFETCHES SAME FILL-ORIGIN LEVEL: 0 DIFFERENT FILL-ORIGIN LEVEL: 0
DTLB AVERAGE MISS LATENCY: 9.23051 cycles
DTLB RQ	ACCESS:   60541954	FORWARD:          0	MERGED:   14670422	TO_CACHE:   45871532

STLB TOTAL     ACCESS:    6664572  HIT:    6637126  MISS:      27446  HIT %:    99.5882  MISS %:   0.411819   MPKI: 0.13723
STLB LOAD TRANSLATION ACCESS:    4226757  HIT:    4199311  MISS:      27446  HIT %:    99.3507  MISS %:   0.649339   MPKI: 0.13723
STLB TRANSLATION FROM L1D PREFETCHER ACCESS:    2437815  HIT:    2437815  MISS:          0  HIT %:        100  MISS %:          0   MPKI: 0
STLB PREFETCH  REQUESTED:          0  ISSUED:          0  USEFUL:          0  USELESS:          0
STLB USEFUL LOAD PREFETCHES:          0 PREFETCH ISSUED TO LOWER LEVEL:          0  ACCURACY: -nan
STLB TIMELY PREFETCHES:          0 LATE PREFETCHES: 0 DROPPED PREFETCHES: 21469
STLB PREFETCHES SAME FILL-ORIGIN LEVEL: 0 DIFFERENT FILL-ORIGIN LEVEL: 0
STLB AVERAGE MISS LATENCY: 28.8881 cycles
STLB RQ	ACCESS:    7448561	FORWARD:          0	MERGED:     760273	TO_CACHE:    6688288

STLB Hit, L1D data hit: 0
STLB Hit, L2C data hit: 0
STLB Hit, LLC data hit: 0
STLB Hit, LLC data miss: 0
STLB STLB hints to L2: 0
L1D TOTAL     ACCESS:   61845748  HIT:   56383057  MISS:    5462691  HIT %:    91.1672  MISS %:    8.83277   MPKI: 27.3135
L1D LOAD      ACCESS:   33965298  HIT:   29732877  MISS:    4232421  HIT %:     87.539  MISS %:     12.461   MPKI: 21.1621
L1D RFO       ACCESS:   24691037  HIT:   23530156  MISS:    1160881  HIT %:    95.2984  MISS %:    4.70163   MPKI: 5.80441
L1D PREFETCH  ACCESS:    3189413  HIT:    3120024  MISS:      69389  HIT %:    97.8244  MISS %:     2.1756   MPKI: 0.346945
AGUS PREFETCH L1 MISS: 0
L1D PREFETCH  REQUESTED:    6565752  ISSUED:    6565752  USEFUL:      40939  USELESS:      28450
L1D USEFUL LOAD PREFETCHES:      40939 PREFETCH ISSUED TO LOWER LEVEL:      69413  ACCURACY: 58.9789
L1D TIMELY PREFETCHES:      40939 LATE PREFETCHES: 12 DROPPED PREFETCHES: 30806
L1D PREFETCHES SAME FILL-ORIGIN LEVEL: 69413 DIFFERENT FILL-ORIGIN LEVEL: 0
L1D AVERAGE MISS LATENCY: 1483.94 cycles
L1D RQ	ACCESS:   46496215	FORWARD:          0	MERGED:   12060498	TO_CACHE:   34118550
L1D WQ	ACCESS:   26571628	FORWARD:     328063	MERGED:     148224	TO_CACHE:   26423404
L1D PQ	ACCESS:    3343948	FORWARD:          0	MERGED:     111248	TO_CACHE:    3221804

L1D UNIQUE REGIONS ACCESSED: 0
L1D REGIONS CONFLICTS: 0
L1D Cross Page Prefetch Requests: 63232
L1D Same Page Prefetch Requests: 3280716
L1D ROI Sum of L1D PQ occupancy: 40343255
L1D PREFETCHES PUSHED FROM L2C: 0
L1I TOTAL     ACCESS:   40229936  HIT:   28935658  MISS:   11294278  HIT %:    71.9257  MISS %:    28.0743   MPKI: 56.4714
L1I LOAD      ACCESS:   40229936  HIT:   28935658  MISS:   11294278  HIT %:    71.9257  MISS %:    28.0743   MPKI: 56.4714
L1I PREFETCH  REQUESTED:          0  ISSUED:          0  USEFUL:          0  USELESS:          0
L1I USEFUL LOAD PREFETCHES:          0 PREFETCH ISSUED TO LOWER LEVEL:          0  ACCURACY: -nan
L1I TIMELY PREFETCHES:          0 LATE PREFETCHES: 0 DROPPED PREFETCHES: 0
L1I PREFETCHES SAME FILL-ORIGIN LEVEL: 0 DIFFERENT FILL-ORIGIN LEVEL: 0
L1I AVERAGE MISS LATENCY: 15.641 cycles
L1I RQ	ACCESS:   58193715	FORWARD:          0	MERGED:   16326781	TO_CACHE:   41866934

BTB TOTAL     ACCESS:   30318300  HIT:   17551379  MISS:   12766921  HIT %:    57.8904  MISS %:    42.1096   MPKI: 63.8346
BTB BRANCH_DIRECT_JUMP	ACCESS:    1886938  HIT:    1046620  MISS:     840318
BTB BRANCH_INDIRECT	ACCESS:   11997161  HIT:    7128169  MISS:    4868992
BTB BRANCH_CONDITIONAL	ACCESS:    7233042  HIT:    5926174  MISS:    1306868
BTB BRANCH_DIRECT_CALL	ACCESS:    3870839  HIT:    1774369  MISS:    2096470
BTB BRANCH_INDIRECT_CALL	ACCESS:     729710  HIT:     345433  MISS:     384277
BTB BRANCH_RETURN	ACCESS:    4600610  HIT:    1330614  MISS:    3269996
BTB BRANCH_OTHER ACCESS:          0  HIT:          0  MISS:          0

L2C TOTAL     ACCESS:   19084769  HIT:   18014571  MISS:    1070198  HIT %:    94.3924  MISS %:     5.6076   MPKI: 5.35099
L2C LOAD      ACCESS:   15526649  HIT:   14601749  MISS:     924900  HIT %:    94.0431  MISS %:    5.95686   MPKI: 4.6245
L2C DATA LOAD MPKI: 1.6738
L2C INSTRUCTION LOAD MPKI: 2.9507
L2C RFO       ACCESS:    1160869  HIT:    1064584  MISS:      96285  HIT %:    91.7058  MISS %:    8.29422   MPKI: 0.481425
L2C PREFETCH  ACCESS:      69413  HIT:      64707  MISS:       4706  HIT %:    93.2203  MISS %:    6.77971   MPKI: 0.02353
AGUS PREFETCH L1 MISS: 0
L2C DATA PREFETCH MPKI: 0.02353
L2C INSTRUCTION PREFETCH MPKI: 0
L2C WRITEBACK ACCESS:    2277755  HIT:    2241919  MISS:      35836  HIT %:    98.4267  MISS %:     1.5733   MPKI: 0.17918
L2C LOAD TRANSLATION ACCESS:      28614  HIT:      20152  MISS:       8462  HIT %:    70.4271  MISS %:    29.5729   MPKI: 0.04231
L2C TRANSLATION FROM L1D PREFETCHER ACCESS:      21469  HIT:      21460  MISS:          9  HIT %:    99.9581  MISS %:  0.0419209   MPKI: 4.5e-05
L2C PREFETCH  REQUESTED:          0  ISSUED:          0  USEFUL:        457  USELESS:       4239
L2C USEFUL LOAD PREFETCHES:        457 PREFETCH ISSUED TO LOWER LEVEL:       4706  ACCURACY: 9.71101
L2C TIMELY PREFETCHES:        457 LATE PREFETCHES: 0 DROPPED PREFETCHES: 0
L2C PREFETCHES SAME FILL-ORIGIN LEVEL: 0 DIFFERENT FILL-ORIGIN LEVEL: 0
L2C AVERAGE MISS LATENCY: 29.185 cycles
L2C RQ	ACCESS:   16737639	FORWARD:          0	MERGED:          0	TO_CACHE:   16737601
L2C WQ	ACCESS:    2277755	FORWARD:         38	MERGED:          0	TO_CACHE:    2277755
L2C PQ	ACCESS:      69413	FORWARD:          0	MERGED:          0	TO_CACHE:      69413

L2C Instructions Evicting Data 243223
L2C Translations Evicting Data 4813
L2C Data Evicting Data 206395
L2C Instructions Evicting Instructions 343610
L2C Translations Evicting Instructions 3174
L2C Data Evicting Instructions 224788
L2C Instructions Evicting Translations 3306
L2C Translations Evicting Translations 484
L2C Data Evicting Translations 4569
L2C Dense regions hint from L2: 0
PSCL5 TOTAL     ACCESS:      48915  HIT:      48915  MISS:          0  HIT %:        100  MISS %:          0   MPKI: 0
PSCL5 LOAD TRANSLATION ACCESS:      27446  HIT:      27446  MISS:          0  HIT %:        100  MISS %:          0   MPKI: 0
PSCL5 TRANSLATION FROM L1D PREFETCHER ACCESS:      21469  HIT:      21469  MISS:          0  HIT %:        100  MISS %:          0   MPKI: 0
PSCL5 PREFETCH  REQUESTED:          0  ISSUED:          0  USEFUL:          0  USELESS:          0
PSCL5 USEFUL LOAD PREFETCHES:          0 PREFETCH ISSUED TO LOWER LEVEL:          0  ACCURACY: -nan
PSCL5 TIMELY PREFETCHES:          0 LATE PREFETCHES: 0 DROPPED PREFETCHES: 0
PSCL5 PREFETCHES SAME FILL-ORIGIN LEVEL: 0 DIFFERENT FILL-ORIGIN LEVEL: 0

PSCL4 TOTAL     ACCESS:      47235  HIT:      47205  MISS:         30  HIT %:    99.9365  MISS %:  0.0635122   MPKI: 0.00015
PSCL4 LOAD TRANSLATION ACCESS:      25766  HIT:      25736  MISS:         30  HIT %:    99.8836  MISS %:   0.116433   MPKI: 0.00015
PSCL4 TRANSLATION FROM L1D PREFETCHER ACCESS:      21469  HIT:      21469  MISS:          0  HIT %:        100  MISS %:          0   MPKI: 0
PSCL4 PREFETCH  REQUESTED:          0  ISSUED:          0  USEFUL:          0  USELESS:          0
PSCL4 USEFUL LOAD PREFETCHES:          0 PREFETCH ISSUED TO LOWER LEVEL:          0  ACCURACY: -nan
PSCL4 TIMELY PREFETCHES:          0 LATE PREFETCHES: 0 DROPPED PREFETCHES: 0
PSCL4 PREFETCHES SAME FILL-ORIGIN LEVEL: 0 DIFFERENT FILL-ORIGIN LEVEL: 0

PSCL3 TOTAL     ACCESS:      48483  HIT:      48453  MISS:         30  HIT %:    99.9381  MISS %:  0.0618774   MPKI: 0.00015
PSCL3 LOAD TRANSLATION ACCESS:      27014  HIT:      26984  MISS:         30  HIT %:    99.8889  MISS %:   0.111054   MPKI: 0.00015
PSCL3 TRANSLATION FROM L1D PREFETCHER ACCESS:      21469  HIT:      21469  MISS:          0  HIT %:        100  MISS %:          0   MPKI: 0
PSCL3 PREFETCH  REQUESTED:          0  ISSUED:          0  USEFUL:          0  USELESS:          0
PSCL3 USEFUL LOAD PREFETCHES:          0 PREFETCH ISSUED TO LOWER LEVEL:          0  ACCURACY: -nan
PSCL3 TIMELY PREFETCHES:          0 LATE PREFETCHES: 0 DROPPED PREFETCHES: 0
PSCL3 PREFETCHES SAME FILL-ORIGIN LEVEL: 0 DIFFERENT FILL-ORIGIN LEVEL: 0

PSCL2 TOTAL     ACCESS:      27446  HIT:      26338  MISS:       1108  HIT %:     95.963  MISS %:    4.03702   MPKI: 0.00554
PSCL2 LOAD TRANSLATION ACCESS:      27446  HIT:      26338  MISS:       1108  HIT %:     95.963  MISS %:    4.03702   MPKI: 0.00554
PSCL2 PREFETCH  REQUESTED:          0  ISSUED:          0  USEFUL:          0  USELESS:          0
PSCL2 USEFUL LOAD PREFETCHES:          0 PREFETCH ISSUED TO LOWER LEVEL:          0  ACCURACY: -nan
PSCL2 TIMELY PREFETCHES:          0 LATE PREFETCHES: 0 DROPPED PREFETCHES: 0
PSCL2 PREFETCHES SAME FILL-ORIGIN LEVEL: 0 DIFFERENT FILL-ORIGIN LEVEL: 0

LLC TOTAL     ACCESS:    1167050  HIT:    1165811  MISS:       1239  HIT %:    99.8938  MISS %:   0.106165   MPKI: 0.006195
LLC LOAD      ACCESS:     924900  HIT:     923747  MISS:       1153  HIT %:    99.8753  MISS %:   0.124662   MPKI: 0.005765
LLC RFO       ACCESS:      96285  HIT:      96226  MISS:         59  HIT %:    99.9387  MISS %:  0.0612764   MPKI: 0.000295
LLC PREFETCH  ACCESS:       4706  HIT:       4690  MISS:         16  HIT %:      99.66  MISS %:   0.339992   MPKI: 8e-05
AGUS PREFETCH L1 MISS: 0
LLC WRITEBACK ACCESS:     132688  HIT:     132685  MISS:          3  HIT %:    99.9977  MISS %: 0.00226094   MPKI: 1.5e-05
LLC LOAD TRANSLATION ACCESS:       8462  HIT:       8455  MISS:          7  HIT %:    99.9173  MISS %:  0.0827228   MPKI: 3.5e-05
LLC TRANSLATION FROM L1D PREFETCHER ACCESS:          9  HIT:          8  MISS:          1  HIT %:    88.8889  MISS %:    11.1111   MPKI: 5e-06
LLC PREFETCH  REQUESTED:          0  ISSUED:          0  USEFUL:          1  USELESS:          0
LLC USEFUL LOAD PREFETCHES:          1 PREFETCH ISSUED TO LOWER LEVEL:         16  ACCURACY: 6.25
LLC TIMELY PREFETCHES:          1 LATE PREFETCHES: 0 DROPPED PREFETCHES: 0
LLC PREFETCHES SAME FILL-ORIGIN LEVEL: 0 DIFFERENT FILL-ORIGIN LEVEL: 0
LLC AVERAGE MISS LATENCY: 163.744 cycles
LLC RQ	ACCESS:    1029656	FORWARD:          0	MERGED:          0	TO_CACHE:    1029656
LLC WQ	ACCESS:     132688	FORWARD:          0	MERGED:          0	TO_CACHE:     132688
LLC PQ	ACCESS:       4706	FORWARD:          0	MERGED:          0	TO_CACHE:       4706

LLC Dense regions hint to LLC: 0

RAW hits: 1460247
Loads Generated: 47956463
Loads sent to L1D: 46496215
Stores Generated: 26571616
Stores sent to L1D: 26571628
Major fault: 0 Minor fault: 1781
Allocated PAGES: 1781
ucb ended
-----------------------------------------------------------------------------------------------------------------------------------------------------------------------------------------------------
Offsets elements: -1465992327945 1465992327945 -1465992327963 2 -1 3 1465992327957 -1465992327955 1 -4 6 1465992327950 -1465992327949 1465992327949 -1465992327948 1465992327948 -2 -1074511 1465993402457 2587715 -2587715 32 -1465992327998 -1085776 27994 1057782 -1074490 -11285 1465996001457 -1465995990172 1074490 1465994915682 -1465994915682 44 -1085820 1465993413742 -1465992327964 -1057784 -1085777 1085777 -1074243 159312 1465993242894 153 -1465992328114 -1074244 159311 -1465993385748 1057827 -43 -1057622 -16591 17865 1465993384310 -1465993402454 1465995990172 -2587720 -1465992327961 1465992327966 -1465992327965 1465992327965 -1465992327944 1465992327944 1465992327963 -1465992327962 1465992327962 -1465992327960 1465992327960 -1465992327959 1465992327959 -1465992327958 1465992327958 -1465992327956 1465992327956 1465992327955 -1465992327954 1465992327954 -1465992327952 1465992327952 -1465992327951 1465992327951 -1465992327947 1465992327946 1465992327943 -1465993402455 1465993402456 2587716 1085776 1465992327967 -1465992327967 -31 30 -1085775 11285 1465993413743 -1465993385749 -11534 170846 1465993243047 -1465992328115 1465993242895 22 -1465992327966 1465992327964 1465992327961 -1465992327957 -1465992327953 1465992327953 -1465992327950 -1465992327946 2587714 -2587685 -1465992299574 -28423 -1085774 1085774 -1057782 -27993 1085775 29 -21195 -1092435 1092435 -1081718 1081718 1465994908454 -1465994908454 -46582 -809598 4 -225539 224021 427 1465995765724 -1465995828953 -167193 231510 -225536 -1465995765728 -224444 1465993402449 2587723 -2587724 -1465993176912 -1124 1135 -1135 124 1004 5 1465993176906 -1465993176907 -5 -3 -1126 -1136 -1465993176903 -8 7 1465993176908 -1465993178041 1465993178042 -1465993176906 -225545 1465993402453 2587719 -2587719 -1465993384245 1465993384246 -1465993384297 179793 -179794 -18155 -2587717 -1465993402458 1465993402460 2587712 -2587713 -7 23 -26 -1465993402463 -2587711 -1465993402221 1465993402317 -49 49 56 -65 -1465992179010 1465992179018 -1465992332137 -1070362 -1465995989886 1465995931853 -345 58378 -4961 -2582722 2587683 -2587683 -1465992332126 8 32543 -21159 -1063772 138906 913474 -1240508 326234 -155842 155842 1465993246399 118 -1465992299693 -21158 -925659 1465993246392 -1465993246398 155841 1465993246400 -1465992332124 32550 -1086037 1053486 -1053491 1053489 -1053488 1053488 1465992332123 -1465993402511 1465993402551 2587621 64 -1465992299641 -924866 -1693 -166549 1114266 1465992299638 -1465993413688 1114050 -1102913 -1465996001455 1085817 -44 1085821 -22 1465992328014 -1465992299636 -1085705 1064546 20961 -1084748 138921 -167782 167785 4104 1465993241554 -1465993413387 10838 1465993402652 2587520 -1465995990061 21456 48960 -12 12 -54707 1089001 -1104826 1465993402549 2587623 -2587623 -1465993402548 16870 1465995973302 -1465995989920 -252 70409 -48955 -21565 15825 1465993386720 -1465993332022 -48953 1465995968603 -1465994951862 1465992364238 -48954 -21566 -1465993332018 1465995968601 -1465994914810 1465992327183 -1465993402546 -1465994951860 66558 -1104870 -1465994887482 1465992299856 -1465992297677 1465992297678 -1465992297678 1465992297677 1465992297679 -1465992364237 -1038312 20623 1465995969549 -2587520 -1465993402541 -70409 21470 8078 40868 -48956 48955 -70526 1465993402545 2587627 -2587628 7952 -7964 1465993380976 -1465993332023 -70522 1465993402546 2587626 -2587625 -1465992299836 1465992299836 -1465992299638 -198 2111 -1116113 1116157 45 -1116156 -23 1465992297700 -66560 -1038310 1465993382029 1465995990061 -1465995968591 48939 -70520 1465993402547 -1465993372942 1465995960567 -1465995919645 1034344 -21581 1465993402548 -1465993373014 1465995960639 -1465995968603 48953 1465993332027 -1465993402297 1465995978601 -1465994874003 1465992297699 -1465993402549 -1465993372885 1465995960509 -2587621 -1465993380979 1032382 1465992320827 -1465992320826 1465992320826 -1465992320827 2587624 -2587627 -1465992320825 1465992320831 -1465992367413 -1035136 -1465994955035 -878163 1465993245574 -1465992367412 -809597 -1088 1088 1465993178098 2587630 -1465995764633 254576 1465992923560 -1465993177012 -1465995764627 1465993177003 -1465993177002 -1465993177001 1465993177002 -1465993245573 878161 -878161 -156972 156971 -156727 156727 1465993245573 59 -58 -156726 156725 -156973 286 1465995989886 -4962 -53071 53072 -53417 -2529249 -2587626 -1465993221605 -19983 -171492 171492 19983 1465993221605 -1465993245572 -156974 -2587624 -1465993372930 1465995960554 -1465995919648 1032390 155124 947789 1465994887259 -1465995833857 1465993246233 -1465992332174 1465992332172 -1465992299635 -946598 914058 32540 -946599 946600 -946600 914060 32541 -946601 914061 1465992332176 -946602 914052 -1070370 -1465993366462 1465995954088 -1465995968602 999844 1465992332184 -946603 -156309 1465992299636 -1465993372952 1465995960576 -1465995968601 48958 -70529 -2587622 -1465993402551 -1465993372891 1465995960513 -1465995919647 48954 1465993332032 -1465993384085 1465993384085 -1465992287667 -915290 -199595 18439 141609 -163535 3483 160052 1465995830120 -1465995993655 163537 908 -171508 212075 1465993201024 -1465993201024 -41475 1465993242499 -1465995993654 1465993406033 201524 -201527 1465993386722 -1465993332024 -1465994954991 1465992367368 -1465995990169 1465993201022 -1465992367366 1465994954990 -1465995830120 875129 1465993402550 2587622 -1465993402554 160960 1465995829212 -1465996000720 10548 -2587618 160961 1465995829211 -1465992367369 -1035181 -10549 10835 -2582664 2529248 345 4961 -833654 -1465993201022 833654 -875126 916499 -41371 1465993402556 2587616 -1465994766690 -1223447 17939 1017207 160053 1465995830119 -2587616 -1465992179074 -1223482 -2587631 -1465992325992 -1087072 1465993413065 -1465992179066 -146925 -1058083 181783 -199975 1465995935524 -2533199 -62 288223780712110492 -10604195 -2200619016727 2200619016727 112665 -51234 -384124 650183 -33236 33235 -33237 -12868641 12901877 -12901877 12868644 -2200619276428 2200606407784 12847238 -2200619148298 2200619148300 -272876 294273 -21397 10603920 -2200629472974 2200619163327 -294273 -21395 19 -19 20 21374 -21399 21380 -21393 21397 -21405 -17 -172954 -2200618975390 2200618975392 -2200619082266 2200619082266 -94460 288808 -21382 21379 -21392 14 -21391 21393 21399 -21401 -2200619148301 2200619148316 -25 -40009 61411 -21381 21381 -2200619172046 2200619172039 -2200619148296 -23978 2200614636860 14868626 -14868626 -10325222 -4543404 4543500 13311 -13406 13405 -2200619151217 2200614594396 14868639 -10488151 -4380488 4380520 176302 -3744317239 3744317240 -4556823 4556825 -176311 162907 13406 -13405 -7990 21395 2200619156289 7985 -7968 7967 -7987 17 -2200619172870 2200619172870 21377 -21372 -27 7993 -7988 -2200619148302 -2200619172059 2200619172060 -2200619194247 2200619194250 -21380 21384 -13413 13407 -13407 -7985 21398 -288225246693979639 288225246693979621 -9 -13408 -7965 7965 13416 -2200619180031 2200619172044 10 -2200619172018 2200619172009 -2200619172045 2200619172045 21388 -21390 13403 -21373 7968 7966 -7971 7970 -7967 -18 7988 -2200619180030 2200619193432 -2200619178178 2200619191581 -2200619194241 2200619180839 -7966 21368 -13401 -162905 162904 13400 -13400 13401 -13399 -7970 7969 -7973 7990 13397 -13398 -7989 -7984 -6 7991 -7996 7994 -7975 21372 -13397 7987 -7969 -15 13 -14 -2200619172041 2200619172059 -21369 -2200619172056 -2200619255086 2200619255081 -11 7996 -13396 -7977 7978 -2200619172871 2200619172871 9 -2200619172028 2200619172021 -2200619172868 2200619194241 -21376 7974 -48015 10373937 -10325922 -7974 7976 -7978 2200619255070 11 7983 -172953 2200618975390 -94453 227398 61395 13396 -13395 -172961 2200619263211 172963 -267409 227391 48007 -162908 -24 162931 -7995 7989 -162932 176325 -61371 47976 -180944 194339 -63333 49937 -7993 176324 49935 176327 -2200619180179 162 2200619180016 13389 -2200619193576 2200619193573 -273890 -2200618919662 2200619193555 -13392 114971 -2200619215158 2200619276507 -13388 13392 -13391 -2200619180017 13386 -176318 176319 -2200619193553 2200619180164 176320 -2200619193578 2200619193578 -2200619193574 2200618970201 -2200618970858 2200619203491 -9256 9256 9257 -9260 9260 -2200619202811 -2200619193556 2200619180165 22648 -22649 22647 -303516 303519 -185581 -2200619100185 2200619100185 185581 22649 -162931 185579 -31984 22720 9263 9262 -9262 -61345 70608 -70609 61347 -61346 70605 294253 10309667 2200619163307 9264 -2200619203492 2200619203492 -9335 9258 -9258 -63329 39902 23428 -13394 -61403 61403 -117938 10605842 -10374112 10372190 -10485982 133694 -133694 -2200618968045 2200619101744 -246182 246183 42623 -42623 -2200619151396 2200619180626 -29230 -72465899623 -2128153251156 2200619150780 10354202 -10605842 -10309661 -294259 -2200618869054 2200619163314 -23427 23427 -180943 180943 -48014 -132930 10506867 10325923 -10325924 -47976 -1956 49933 22728 -63327 49931 61353 -63325 63325 172949 -94452 -132939 180944 -2200619156334 -106876 -94462 -2200618987806 2200619263212 162906 180946 -280870 99926 -2200618975312 2200618880850 112474 -522142 450662 234409 -234413 234411 -2200619180841 2200619172853 -226421 234412 13391 162908 -280869 117962 -112498 275404 -180942 -275400 10598450 -10598450 288789 -194754 141592 -235632 94042 10504414 1913 -10324965 -275411 112503 -275407 -2200618995055 2200619270462 13388 -13387 13390 -288799 94047 10506327 -10324966 -2200619180264 2200618904855 275411 -275406 2200619270461 -7991 21376 -112471 225743 -113272 176318 -288784 275397 10323051 -2200629503697 2200629505724 -10311694 -13386 10600490 -2200629505339 2200629505339 -10311689 -10309666 -2200619163308 2200629475001 -10311692 10312528 -10312529 -194751 194751 -288801 10600374 -10605833 294259 -294260 2200618869054 2200629473275 -11565845 961624 -2200629503894 2200618899974 2200629472974 -10309660 10309963 -10604223 -2200618900074 100 614 2200629505302 -10311685 10311690 -2200629505302 -10311693 10311688 -10325075 -275410 10600482 -10311690 -13382 -2200619180267 2200619180265 275412 275402 241 2200619193407 -288794 275410 -2200619180024 2200619180025 -275397 275398 -48016 -10325921 162932 114916 -114916 -162907 10325925 -10488857 -47975 -1964 49939 13377 -176310 176311 -63321 63318 -13381 10373888 -10312552 -63317 63316 -13380 -48007 48005 18013 162930 180942 -275398 112466 114954 37940 23416 -61385 61385 -13377 -176309 -10352288 133695 15 -246192 246178 -2200619101740 2200619101741 42611 -42611 -2200619151391 -29234 -72465899619 72465899618 10354208 -2200629504982 2200618899140 294243 -23414 -39892 49929 -9273 -22711 22712 -63306 49927 -61336 61337 -63304 63304 -13376 -2200618968160 2200619144467 -2200619193441 -82959 2200619263025 -114915 10488852 162929 -162930 -18014 -94454 -2200619017103 -2200619144475 3544783 2200615613115 -13421 13418 -189730 189737 -26807 -275396 227452 47945 -22647 26799 -13426 -13374 13374 13421 10296256 -10296254 -13423 -13373 26813 -26814 189721 -189728 -2200619017099 2200619206846 -26816 26798 194316 13442 -26815 -36116 22689 -22690 17346 -22893 28246 -28246 -2200619165755 2200619165745 -2200619165758 2200629503697 -2766 -2200629500931 2200629504003 -1420 35 -10336846 10336861 -2200629502605 2448 2200619191549 -2200619191548 10308606 -10308606 -2200619193993 2200619165749 10336849 -10336860 -2200619280138 2200619280152 -13 -58223 10395078 -10336910 -58170 58170 58171 28301 -28300 23210 -2200619186430 -446 2200619191943 10309994 -10338275 28281 -48245 19998 -58220 -10336855 -58222 58223 58224 28248 -28251 -58221 58248 -30 10336795 37 -10395083 -2200619107537 2200619194010 10308384 -10394857 -2200619105485 2200619163708 28250 -86472 58222 28251 -86473 13969 10322854 -10322854 10322885 -10322889 10322856 -10322852 -10322855 -72192 72192 -72194 72189 -1205131 11527987 -10322858 10322888 -33 14280 10308575 10322858 10322853 -10308575 -14280 10322855 10322857 -14846857 4538250 -28256 10336860 -10336859 -2200619280137 2200619280085 10336911 -2200629500565 2200619163653 -58171 58231 -52 52 58168 10336910 -10308608 -28302 -10336911 28308 -28254 2200629616999 -10308607 10308604 -35 -10336801 28233 -22689 22690 13439 -207744 82368 2200619207654 -2200619207457 2200629501191 -10293734 -13440 10307174 -10307174 13440 -13439 10293734 2506 -10309680 -2200619194017 2200619194016 10311673 -2200629505689 2200629504263 -3072 3072 -10296806 10296806 -2200629504460 2200629504460 10296814 -13441 10310246 -10310246 10310244 -10310244 13423 -61390 61392 10312545 -10312544 10311689 -2200619194228 2200619194231 10311685 10311568 -10311570 -294255 10605930 -10311673 10309663 2200619163311 -294257 294260 -294261 294262 -13404 -7961 -2200619172865 2200619172863 21378 -48010 -72465880889 72465942304 -13403 -21378 -2200619172060 2200619172054 -2200619172863 -2200619172061 2200619172053 -2200619172853 2200619172857 -12847247 12868634 -21396 272877 2200619148303 21394 2200619163326 -294272 -12868643 12901876 -33235 -294279 294286 -288223780701800521 -63 -1465993202282 1465993202283 17938 1465993384574 1465992179065 -1465993402547 -1045730 1045730 -1035178 1465993201021 7946 1465993373021 -1465993402437 -111 -1465993332029 7405 909 7670 56661 20024 -90645 -23493 21450 1465993380989 -1465993378946 -23494 2023 5382 8579 20023 -76685 -13960 13960 20025 13957 -13958 -23492 21467 2025 8578 1465993364984 -1465993308323 1465993308322 -1465993378944 13958 -46 47 1465993364986 -1465993402438 1465993380988 -1465993402550 -2587619 -1465992287664 -1114889 101 1465993402439 -40837 169916 21566 89529 -141609 -21926 163535 -160052 -3483 1465995993655 -1465995830118 906 -908 -170600 -1465995919652 21569 1465993332024 -1465993386722 1465993386723 1465995990169 201527 833655 1465993242495 1465993413102 1035181 1465994954991 -1465996000721 -2582663 -41370 1465992367367 1076555 -41374 -1465996000689 1087074 -1076557 -1465995971698 -78 288223780712110508 232821 -616946 616947 -12901879 33233 -2200619309661 2200619148301 -272877 272876 -10309647 -2200619163327 2200619163328 -21400 -20 21 21402 -294276 21383 -2200619193435 2200619172056 -21383 -16 -232511 232510 -272875 294271 10309649 -10309648 -2200619163326 2200619141931 26 10603894 -10603920 -2200618899777 2200629505670 -10311657 10310219 -10310218 10311611 -10311611 10311646 -10605913 10605915 -2200629505675 2200619191580 10311647 -10311647 -2200629505670 2200618899769 10605901 -10605912 -2200619014168 2200619014160 55576 -55574 10605911 -10605910 55573 -55572 294258 -294240 294240 -48228 -246033 -2200618897266 2200618897269 -2200618953290 2200629503622 -1687 -10548650 55572 -55573 55574 55571 55575 -55548 10605847 -10605876 238688 -2200619194041 2200629505466 -10605685 -238688 45654 10560223 -10560224 33 -10560255 248605 -248604 10560220 -10560222 10560221 -10560223 9920 10550303 -10560221 -10311616 10311616 -10560226 -10311615 -248606 9918 -9922 -970888 1219496 10311615 -10311613 -294252 10605878 -2200629620034 2200629620035 36 -10311646 2200629505889 -2200629505677 2200629505675 -14864144 4552495 -2200619194027 2200614641531 14864110 -34 -2200619308424 -2200619014157 2200619014159 294264 -294262 248609 10311645 -10311645 -294267 10605879 -10605859 -991323 991336 86346 -86346 10605900 -10605900 1285589 -1285566 294220 -2200619151239 2200617865652 1285603 -1285567 -3237427 3237390 11597248 -14834604 14834640 -14834638 3237389 -3237388 14832642 -14862457 29508 14832643 -2200629503678 33466 -10092 2200614647658 -2200614637566 2200614637567 -2200614671039 2200629504401 -11595973 11595256 2200629473691 -2200629504609 2200629504607 33794 -33792 2522 -50 2200629503424 -2200629503415 31 2200629503390 -2200629503381 2200614668726 14834391 -1746 -2200629503684 2200629504250 -14833212 14833212 -14833213 14833213 -14833214 14833214 132 -14833344 -2200614637569 -2200614647659 -23374 2200629504397 -2200629504401 2200629505656 14834642 -38 34 -14834637 -2200629505692 2200629505658 -1245 -14833363 14833345 18 -10319595 10319595 10319578 -14833347 14833346 -10319577 10319576 1491 -2200629505884 2200614647653 14834856 -14834856 -10321363 1769 10319594 -14833364 14833363 2200614647655 14834854 -14834854 14833343 14834853 -1489 -14833361 14833362 3237387 2200629503682 -14832643 -2200614637460 2200629471992 -14834532 11595820 -2200629501934 -41 40 2200629501936 -14833209 -2200614670690 2200614670690 -2200617878022 2200629473278 1806 -2200629474780 2200629474972 -11597254 -1704 -14832901 14833207 11595973 -2200629504395 2200614647659 14833361 -717 717 -2200629504415 2200629505690 -1275 -14833362 -2200629470821 -33794 2200629505852 -14834602 -2200614671250 31284 2200614639966 14833360 -14833345 14833344 -4513768 10319577 -10319576 10319593 2200614647654 14834855 -14833343 2200629470820 -10321346 10321363 -10319594 4513768 2200614647656 -14834853 -14833360 -14833342 -2200629504611 2200614671251 14834641 -14834641 3237388 -11595256 -2200617908422 2200629505701 -1427 1393 -11597249 -14834639 3237391 11597214 -14834605 -3237391 -2200614785433 2200629620039 -14834609 4274384 10560224 10560225 10550304 -10560225 -4274386 -14834643 4274386 9919 -4284306 4228782 55522 -55522 10550334 -10550334 -55524 -4228784 -10605857 -4228783 14834607 -11597215 11597228 -2200629505669 -10605850 10605849 -991388 11597236 -11597236 991388 10604113 -10604126 -4228778 4228815 -991379 -2200618857040 2200618857024 293922 -293959 -10519519 207652 10311903 -10311902 -293961 293963 -293964 272794 21170 -21170 -272794 10603868 -10309904 -2200619163070 2200619141899 -211068 232238 -232238 232236 -21155 -39990 -72465880900 72465920910 -31051 31041 -31038 31040 -31043 31050 -172931 8935 31042 -192525 192525 -31059 31059 -192524 192529 -192529 21151 -21147 -31058 -31041 31063 -31065 31060 8105 -2200619178282 2200619191324 -21150 -2200619172835 2200619172847 -2200619172823 2200619180942 -2200619180942 2200619172833 21150 -21144 21146 -31064 -2200619139159 2200619160304 -52207 -161468 192530 21149 -52209 31054 -192522 -2200618979467 -845 2200619172841 8119 -8104 8104 -8119 13045 -13045 -8096 8097 -8101 8099 -8102 8102 13046 -13046 13043 -21146 21148 -8123 8122 -2200619156394 2200619148270 13040 -13039 -163040 163041 -3744303939 3739760417 -10312079 -13040 -2200619180375 -3739760270 3739760270 -10312076 -21141 -21 -2200619172840 2200619172840 21144 -2200619193179 -810 21143 -21143 -172924 2200619276353 -21140 21145 -21142 -10 -2200619171988 2200619193141 -21152 -2200619171989 2200619171995 -2200619193138 2200619193137 21154 21142 2200619171989 21152 -21169 -40003 -2200619131993 2200619171997 -2200619193984 2200619172842 -2200619172031 2200619172015 21159 31057 -192523 -52211 31065 -31062 52218 -213684 213684 -21148 31067 -2200619172846 2200619193987 -21167 -31042 -2200619117229 21166 -52210 31056 -31055 -161444 161443 2200619172835 52209 31066 211065 21168 -21165 -12847227 12868389 -21154 -2200619082265 2200619255202 2200619193143 -21153 -2200619172637 -10328554 10307403 10328554 2200619193788 10311900 -10331626 10331626 10331632 10310474 21153 10310473 -10310473 -72465880899 72465942065 -21156 16 -293966 -2200619148273 293965 10309903 2200619163071 -12868397 12901890 -33495 -293971 38 10603823 -10309895 -293974 293974 293979 -288223780701816649 -79 -1465992281108 1465992281109 -1465992314007 32893 -1105038 1465993386268 -1465993386157 -1465995968607 48970 -54715 164661 -180486 1465993386146 2604026 -2604027 32887 -1086558 -18192 -2549583 288223780712126892 -10604143 -2200619016779 2200619016779 293945 -181333 650186 -12901893 12868398 -21177 54670 -54673 -2200619254992 2200619254994 -2200618875476 2200619163072 -21174 31062 -52214 52219 213683 -21157 -2200619193992 2200619193994 -31063 -31044 -241752 241754 31044 -2200619148267 21169 52212 -161443 213654 -52212 52210 -21173 -2200619148271 2200619148273 -293965 12868397 33494 -327464 293978 -288223780701816728 79 -1465992281109 1465992281132 -1465993386162 -2604025 -1465992350960 1465992350982 -1465993205683 -180451 1017214 -17974 1465993386164 2604008 -2604009 -1465993184639 -201523 1465993386165 -2604006 -1465992350979 -1045736 1045737 -1035184 1465993386161 -201526 -1465995969549 -20512 1465993386157 -1465993386268 -1465993364584 48956 1465993315627 -1465995960645 1465993356639 -1465993364597 48971 1465993315625 -1465993386165 1465993386166 2604005 -2604002 -1465993386166 -1465993367726 140330 1465993227396 -1465993386170 1465993386247 2603925 -1465995834945 -155227 1465993386167 -2604005 156794 1465995833378 156888 1465995833284 -1465995833281 -167785 10894 -1465993386247 1465993386163 2604009 -2604008 -1465993230937 1465995834945 -1465995919635 -48972 70541 -48971 48972 -54717 1465993370339 -1465994887256 -1102916 -1465995989929 1465995978542 -1465995962523 1465995962523 11387 -2604011 -1465993369899 138862 -155124 2603904 70426 1465993370336 2604011 -1465995919626 -48975 1081345 -32586 -1070330 1465995835048 -1465995833863 1465993229852 -1465993231037 1186 946606 -946606 1465993229851 -1465993386161 -1465994919837 1465992315824 -1465993386159 -2604014 -1465993386158 1465993370333 -1465993315616 1465995968602 -1465995792158 872324 -1070084 -182419 1465993568324 2545645 -1465996113968 1252495 1465992315830 -1465992315830 1465992315829 -1465993231035 947792 -946605 -156311 -2604012 -1465993386160 1465993386160 2604012 -1465993231036 -946604 -1188 -1189 -1190 -1191 1465993386162 2604010 -1465992283244 -1102679 1102679 1465992283244 -1465992283243 -1465993229368 96 -1694 -165682 11204 1102201 -2932032488021 2932031540298 -718 1465995931508 58386 -58033 -2599050 -139586 1085555 1465992283401 -1465992283247 1465992283247 -1465992283248 -946122 94 -171834 171834 19943 -191675 191675 -180938 1465993370337 -1465993315622 -48970 -1465995833396 -138621 -17912 -1465995958714 1465993366089 -1465993366091 1465993366091 -1465993230968 -2932031540296 2932031385820 -1465995942280 1465995995696 -58386 -2545977 -1465992283246 1465992283246 -1465993386163 -1465993229276 1465993229277 -1465993230970 168242 -94 1465993229371 -1465993229371 1465993229370 2604006 -2604007 -1465993186571 -39557 -163525 1465993389652 -1465993386169 -1465995809686 1465993205683 -55 -1465993386114 180486 1465995809686 -2604068 55 -180237 180237 1465993205617 -1465992283189 -946121 -156764 17035 1085698 -945969 -140627 1086595 -945988 44665 -206706 5267 201439 1465995788733 -1465995792210 -197962 1465993386104 2604068 -2604071 -1465993386105 156774 1465995833398 -1465995788733 -44665 -156774 -1465995833398 1465993229319 -1465993386093 -2604080 -2604077 -1465992283177 1957 -1116158 1116158 -1088166 1088166 -1116159 1116159 1465992281209 1465993205627 1465993205619 -1465993385875 180249 1465993386147 2604025 -1465995989934 180248 1465993205660 -42 -2604067 -1465993385865 1465993385908 -1465993385905 1465993385886 
Potential of Offsets elements: 28.2813 28.2813 28.2813 1162.28 1513.11 448.281 28.2813 28.2813 821.281 536.281 610.281 28.2813 28.2813 28.2813 28.2813 28.2813 853.281 28.2813 28.2813 28.2813 28.2813 455.281 28.2813 273.281 28.2813 28.2813 28.2813 28.2813 28.2813 1479.03 28.2813 28.2813 896.281 95.2813 28.2813 28.2813 28.2813 28.2813 28.2813 28.2813 28.2813 28.2813 28.2813 28.2813 28.2813 28.2813 28.2813 28.2813 28.2813 28.2813 28.2813 28.2813 28.2813 28.2813 28.2813 1288.28 28.2813 28.2813 28.2813 28.2813 28.2813 28.2813 28.2813 28.2813 28.2813 28.2813 28.2813 28.2813 28.2813 28.2813 28.2813 28.2813 28.2813 28.2813 28.2813 28.2813 28.2813 28.2813 28.2813 28.2813 28.2813 28.2813 28.2813 28.2813 28.2813 28.2813 28.2813 28.2813 28.2813 28.2813 109.281 40.2813 28.2813 71.2813 28.2813 84.2813 48.2813 28.2813 28.2813 28.2813 28.2813 81.2813 28.2813 28.2813 174.281 433.281 28.2813 28.2813 28.2813 28.2813 28.2813 28.2813 28.2813 28.2813 28.2813 28.2813 28.2813 34.2813 28.2813 227.281 28.2813 28.2813 28.2813 28.2813 28.2813 28.2813 28.2813 28.2813 28.2813 967.281 28.2813 28.2813 28.2813 28.2813 28.2813 28.2813 28.2813 28.2813 28.2813 28.2813 392.281 28.2813 76.2813 171.281 64.2813 28.2813 29.2813 29.2813 28.2813 1312.28 28.2813 28.2813 422.281 1310.28 28.2813 28.2813 28.2813 735.281 759.281 28.2813 28.2813 28.2813 28.2813 228.281 28.2813 28.2813 28.2813 28.2813 28.2813 28.2813 28.2813 28.2813 28.2813 28.2813 28.2813 28.2813 28.2813 28.2813 866.281 49.2813 74.2813 28.2813 28.2813 72.2813 28.2813 28.2813 28.2813 144.281 30.2813 29.2813 28.2813 28.2813 28.2813 28.2813 29.2813 36.2813 28.2813 28.2813 28.2813 28.2813 28.2813 28.2813 452.281 28.2813 28.2813 28.2813 28.2813 28.2813 28.2813 32.2813 43.2813 28.2813 28.2813 28.2813 28.2813 60.2813 28.2813 28.2813 28.2813 28.2813 28.2813 28.2813 77.2813 28.2813 28.2813 28.2813 28.2813 28.2813 28.2813 28.2813 28.2813 92.2813 556.281 28.2813 28.2813 28.2813 28.2813 28.2813 28.2813 28.2813 28.2813 28.2813 38.2813 28.2813 28.2813 277.281 28.2813 109.281 28.2813 28.2813 28.2813 28.2813 28.2813 28.2813 28.2813 28.2813 28.2813 28.2813 28.2813 28.2813 28.2813 126.281 586.281 28.2813 28.2813 46.2813 420.281 279.281 28.2813 28.2813 28.2813 28.2813 28.2813 343.281 696.281 28.2813 28.2813 28.2813 28.2813 28.2813 28.2813 149.281 77.2813 28.2813 28.2813 28.2813 462.281 28.2813 28.2813 28.2813 28.2813 28.2813 72.2813 28.2813 28.2813 28.2813 28.2813 28.2813 28.2813 28.2813 28.2813 28.2813 28.2813 28.2813 28.2813 28.2813 28.2813 86.2813 28.2813 169.281 64.2813 91.2813 29.2813 208.281 48.2813 30.2813 32.2813 28.2813 28.2813 36.2813 28.2813 28.2813 28.2813 28.2813 28.2813 28.2813 28.2813 28.2813 28.2813 28.2813 28.2813 28.2813 28.2813 33.2813 28.2813 28.2813 45.2813 35.2813 28.2813 37.2813 28.2813 28.2813 28.2813 28.2813 214.281 80.2813 46.2813 28.2813 28.2813 28.2813 28.2813 166.281 28.2813 136.281 28.2813 28.2813 28.2813 130.281 42.2813 28.2813 28.2813 28.2813 28.2813 28.2813 28.2813 28.2813 28.2813 28.2813 28.2813 28.2813 28.2813 28.2813 28.2813 28.2813 28.2813 28.2813 28.2813 28.2813 28.2813 233.281 28.2813 28.2813 28.2813 28.2813 28.2813 28.2813 28.2813 28.2813 28.2813 28.2813 28.2813 28.2813 28.2813 268.281 28.2813 28.2813 28.2813 28.2813 28.2813 28.2813 48.2813 28.2813 28.2813 28.2813 28.2813 28.2813 28.2813 46.2813 28.2813 28.2813 28.2813 75.2813 28.2813 28.2813 29.2813 28.2813 28.2813 28.2813 28.2813 28.2813 28.2813 29.2813 28.2813 28.2813 28.2813 28.2813 28.2813 28.2813 28.2813 79.2813 91.2813 28.2813 28.2813 28.2813 85.2813 28.2813 28.2813 28.2813 28.2813 28.2813 28.2813 28.2813 39.2813 28.2813 28.2813 28.2813 28.2813 28.2813 28.2813 28.2813 28.2813 28.2813 28.2813 28.2813 28.2813 28.2813 28.2813 28.2813 28.2813 28.2813 28.2813 28.2813 28.2813 70.2813 28.2813 28.2813 28.2813 28.2813 28.2813 28.2813 28.2813 28.2813 30.2813 28.2813 28.2813 28.2813 28.2813 28.2813 28.2813 28.2813 28.2813 28.2813 28.2813 28.2813 292.281 28.2813 28.2813 40.2813 32.2813 28.2813 28.2813 28.2813 28.2813 28.2813 28.2813 28.2813 28.2813 28.2813 28.2813 28.2813 28.2813 28.2813 118.281 28.2813 28.2813 28.2813 28.2813 28.2813 28.2813 28.2813 28.2813 28.2813 28.2813 28.2813 28.2813 28.2813 28.2813 28.2813 28.2813 28.2813 28.2813 28.2813 28.2813 28.2813 29.2813 92.2813 77.2813 28.2813 28.2813 28.2813 29.2813 28.2813 28.2813 28.2813 28.2813 28.2813 28.2813 28.2813 28.2813 28.2813 28.2813 28.2813 28.2813 28.2813 28.2813 28.2813 28.2813 28.2813 28.2813 28.2813 28.2813 28.2813 28.2813 28.2813 49.2813 28.2813 28.2813 28.2813 28.2813 28.2813 28.2813 28.2813 28.2813 28.2813 28.2813 28.2813 28.2813 28.2813 34.2813 28.2813 28.2813 28.2813 36.2813 28.2813 28.2813 28.2813 28.2813 28.2813 28.2813 28.2813 28.2813 28.2813 28.2813 79.2813 110.281 148.281 28.2813 28.2813 28.2813 28.2813 28.2813 28.2813 282.281 28.2813 28.2813 29.2813 28.2813 28.2813 28.2813 28.2813 28.2813 28.2813 29.2813 451.281 28.2813 28.2813 28.2813 28.2813 28.2813 28.2813 46.2813 42.2813 37.2813 136.281 57.2813 28.2813 28.2813 30.2813 28.2813 28.2813 28.2813 28.2813 28.2813 28.2813 28.2813 28.2813 28.2813 28.2813 28.2813 28.2813 28.2813 28.2813 28.2813 28.2813 28.2813 28.2813 28.2813 41.2813 28.2813 28.2813 28.2813 28.2813 28.2813 28.2813 28.2813 28.2813 28.2813 28.2813 28.2813 28.2813 133.281 28.2813 28.2813 28.2813 38.2813 33.2813 28.2813 28.2813 28.2813 28.2813 28.2813 28.2813 28.2813 28.2813 28.2813 28.2813 28.2813 28.2813 28.2813 28.2813 28.2813 28.2813 505.281 28.2813 28.2813 28.2813 28.2813 28.2813 28.2813 544.281 28.2813 28.2813 28.2813 28.2813 32.2813 335.281 44.2813 102.281 28.2813 28.2813 28.2813 28.2813 28.2813 225.281 28.2813 28.2813 28.2813 28.2813 28.2813 28.2813 28.2813 28.2813 28.2813 28.2813 28.2813 28.2813 28.2813 28.2813 28.2813 28.2813 395.281 28.2813 28.2813 28.2813 28.2813 28.2813 28.2813 28.2813 304.281 28.2813 28.2813 28.2813 28.2813 28.2813 28.2813 28.2813 459.281 213.281 320.281 82.2813 28.2813 28.2813 28.2813 28.2813 28.2813 28.2813 148.281 28.2813 28.2813 28.2813 28.2813 28.2813 28.2813 322.281 28.2813 28.2813 28.2813 28.2813 28.2813 28.2813 28.2813 28.2813 28.2813 28.2813 28.2813 28.2813 28.2813 147.281 28.2813 28.2813 28.2813 28.2813 28.2813 28.2813 28.2813 28.2813 28.2813 28.2813 37.2813 36.2813 28.2813 28.2813 28.2813 253.281 28.2813 28.2813 28.2813 28.2813 28.2813 28.2813 28.2813 28.2813 28.2813 28.2813 28.2813 28.2813 28.2813 28.2813 28.2813 28.2813 28.2813 28.2813 28.2813 28.2813 28.2813 28.2813 28.2813 28.2813 28.2813 28.2813 28.2813 28.2813 28.2813 28.2813 28.2813 28.2813 28.2813 28.2813 28.2813 28.2813 70.2813 128.281 28.2813 28.2813 28.2813 28.2813 28.2813 28.2813 28.2813 28.2813 28.2813 28.2813 28.2813 28.2813 28.2813 28.2813 28.2813 28.2813 28.2813 28.2813 28.2813 28.2813 28.2813 28.2813 28.2813 28.2813 28.2813 28.2813 28.2813 28.2813 28.2813 28.2813 28.2813 28.2813 28.2813 28.2813 28.2813 28.2813 28.2813 28.2813 28.2813 28.2813 28.2813 112.281 28.2813 28.2813 28.2813 28.2813 28.2813 28.2813 28.2813 28.2813 28.2813 28.2813 28.2813 28.2813 28.2813 28.2813 28.2813 28.2813 28.2813 28.2813 28.2813 28.2813 41.2813 28.2813 28.2813 28.2813 28.2813 28.2813 28.2813 28.2813 28.2813 28.2813 28.2813 28.2813 28.2813 28.2813 28.2813 28.2813 28.2813 28.2813 28.2813 28.2813 28.2813 42.2813 36.2813 28.2813 28.2813 28.2813 28.2813 28.2813 28.2813 28.2813 28.2813 28.2813 28.2813 28.2813 28.2813 28.2813 28.2813 28.2813 28.2813 28.2813 28.2813 28.2813 28.2813 28.2813 28.2813 28.2813 28.2813 28.2813 28.2813 28.2813 28.2813 28.2813 28.2813 28.2813 28.2813 28.2813 28.2813 28.2813 28.2813 28.2813 28.2813 28.2813 28.2813 146.281 31.2813 28.2813 28.2813 28.2813 28.2813 28.2813 28.2813 28.2813 28.2813 28.2813 28.2813 28.2813 28.2813 28.2813 28.2813 28.2813 28.2813 28.2813 28.2813 28.2813 28.2813 28.2813 28.2813 28.2813 44.2813 28.2813 28.2813 28.2813 28.2813 28.2813 28.2813 28.2813 28.2813 28.2813 28.2813 28.2813 28.2813 28.2813 28.2813 28.2813 28.2813 682.281 28.2813 28.2813 28.2813 28.2813 28.2813 28.2813 28.2813 28.2813 28.2813 28.2813 28.2813 28.2813 28.2813 28.2813 28.2813 28.2813 28.2813 28.2813 28.2813 28.2813 28.2813 58.2813 28.2813 48.2813 28.2813 28.2813 28.2813 28.2813 28.2813 28.2813 28.2813 28.2813 28.2813 28.2813 28.2813 28.2813 28.2813 28.2813 28.2813 28.2813 28.2813 28.2813 28.2813 28.2813 28.2813 28.2813 28.2813 28.2813 28.2813 28.2813 28.2813 28.2813 28.2813 28.2813 28.2813 28.2813 28.2813 28.2813 28.2813 28.2813 28.2813 28.2813 28.2813 28.2813 28.2813 28.2813 28.2813 28.2813 28.2813 28.2813 28.2813 28.2813 28.2813 72.2813 37.2813 28.2813 28.2813 28.2813 28.2813 28.2813 28.2813 28.2813 28.2813 28.2813 28.2813 28.2813 28.2813 28.2813 28.2813 28.2813 28.2813 74.2813 29.2813 36.2813 28.2813 28.2813 28.2813 28.2813 28.2813 28.2813 28.2813 28.2813 28.2813 28.2813 28.2813 28.2813 28.2813 28.2813 28.2813 28.2813 28.2813 28.2813 28.2813 34.2813 51.2813 28.2813 28.2813 28.2813 28.2813 28.2813 28.2813 28.2813 28.2813 28.2813 28.2813 28.2813 28.2813 28.2813 28.2813 28.2813 28.2813 28.2813 28.2813 28.2813 28.2813 28.2813 28.2813 28.2813 28.2813 28.2813 28.2813 28.2813 28.2813 28.2813 28.2813 28.2813 28.2813 28.2813 28.2813 28.2813 28.2813 28.2813 28.2813 28.2813 28.2813 28.2813 51.2813 28.2813 28.2813 28.2813 28.2813 28.2813 28.2813 28.2813 28.2813 28.2813 28.2813 28.2813 28.2813 28.2813 28.2813 28.2813 28.2813 28.2813 28.2813 28.2813 28.2813 30.2813 230.281 28.2813 28.2813 28.2813 28.2813 28.2813 28.2813 28.2813 28.2813 28.2813 28.2813 28.2813 28.2813 28.2813 28.2813 72.2813 28.2813 28.2813 28.2813 28.2813 56.2813 63.2813 28.2813 28.2813 28.2813 28.2813 28.2813 28.2813 28.2813 28.2813 28.2813 32.2813 28.2813 28.2813 28.2813 28.2813 28.2813 28.2813 28.2813 28.2813 28.2813 32.2813 200.281 28.2813 42.2813 28.2813 28.2813 28.2813 28.2813 28.2813 28.2813 28.2813 28.2813 28.2813 28.2813 28.2813 28.2813 28.2813 28.2813 28.2813 28.2813 28.2813 28.2813 53.2813 28.2813 28.2813 28.2813 28.2813 28.2813 28.2813 28.2813 28.2813 28.2813 324.281 28.2813 28.2813 28.2813 28.2813 28.2813 28.2813 28.2813 28.2813 28.2813 28.2813 28.2813 28.2813 28.2813 28.2813 28.2813 28.2813 28.2813 28.2813 28.2813 28.2813 326.281 28.2813 28.2813 28.2813 28.2813 28.2813 28.2813 28.2813 28.2813 28.2813 37.2813 46.2813 168.281 28.2813 28.2813 28.2813 28.2813 28.2813 28.2813 28.2813 28.2813 28.2813 28.2813 28.2813 28.2813 28.2813 28.2813 28.2813 28.2813 28.2813 28.2813 28.2813 28.2813 28.2813 28.2813 28.2813 28.2813 28.2813 28.2813 28.2813 28.2813 28.2813 28.2813 28.2813 28.2813 28.2813 28.2813 28.2813 28.2813 28.2813 28.2813 28.2813 28.2813 28.2813 28.2813 28.2813 28.2813 28.2813 28.2813 28.2813 28.2813 28.2813 28.2813 28.2813 28.2813 42.2813 28.2813 28.2813 28.2813 28.2813 28.2813 28.2813 28.2813 28.2813 28.2813 28.2813 28.2813 28.2813 28.2813 28.2813 52.2813 28.2813 28.2813 32.2813 28.2813 28.2813 28.2813 28.2813 28.2813 28.2813 28.2813 28.2813 28.2813 28.2813 28.2813 28.2813 28.2813 28.2813 28.2813 28.2813 33.2813 28.2813 28.2813 28.2813 28.2813 28.2813 28.2813 33.2813 28.2813 28.2813 67.2813 28.2813 28.2813 28.2813 311.281 28.2813 28.2813 28.2813 28.2813 28.2813 28.2813 28.2813 28.2813 28.2813 28.2813 176.281 28.2813 28.2813 28.2813 28.2813 28.2813 28.2813 36.2813 28.2813 29.2813 32.2813 28.2813 28.2813 28.2813 28.2813 28.2813 28.2813 28.2813 28.2813 28.2813 28.2813 31.2813 28.2813 28.2813 46.2813 74.2813 28.2813 28.2813 28.2813 28.2813 28.2813 757.281 28.2813 28.2813 28.2813 28.2813 28.2813 28.2813 28.2813 28.2813 28.2813 28.2813 28.2813 28.2813 28.2813 28.2813 28.2813 223.281 28.2813 28.2813 28.2813 28.2813 372.281 28.2813 28.2813 28.2813 233.281 28.2813 28.2813 28.2813 28.2813 42.2813 28.2813 28.2813 28.2813 28.2813 28.2813 28.2813 28.2813 28.2813 28.2813 28.2813 28.2813 28.2813 30.2813 28.2813 28.2813 28.2813 28.2813 28.2813 28.2813 28.2813 31.2813 117.281 97.2813 28.2813 28.2813 28.2813 28.2813 28.2813 28.2813 324.281 28.2813 28.2813 28.2813 40.2813 64.2813 34.2813 28.2813 28.2813 70.2813 28.2813 28.2813 28.2813 28.2813 28.2813 28.2813 28.2813 28.2813 28.2813 28.2813 28.2813 28.2813 28.2813 28.2813 200.281 28.2813 28.2813 28.2813 28.2813 28.2813 28.2813 28.2813 28.2813 28.2813 28.2813 28.2813 28.2813 28.2813 28.2813 28.2813 28.2813 28.2813 28.2813 28.2813 28.2813 32.2813 28.2813 28.2813 28.2813 28.2813 28.2813 28.2813 28.2813 28.2813 28.2813 28.2813 28.2813 28.2813 28.2813 28.2813 28.2813 28.2813 28.2813 28.2813 28.2813 244.281 136.281 28.2813 28.2813 28.2813 28.2813 28.2813 28.2813 28.2813 28.2813 28.2813 28.2813 28.2813 28.2813 28.2813 28.2813 28.2813 28.2813 28.2813 28.2813 28.2813 28.2813 28.2813 82.2813 28.2813 28.2813 251.281 28.2813 28.2813 28.2813 28.2813 28.2813 28.2813 28.2813 28.2813 28.2813 28.2813 28.2813 28.2813 28.2813 44.2813 68.2813 28.2813 84.2813 28.2813 28.2813 28.2813 28.2813 28.2813 28.2813 28.2813 29.2813 28.2813 28.2813 28.2813 28.2813 28.2813 28.2813 28.2813 28.2813 28.2813 28.2813 28.2813 28.2813 110.281 343.281 28.2813 28.2813 28.2813 28.2813 28.2813 28.2813 28.2813 28.2813 28.2813 28.2813 28.2813 28.2813 28.2813 28.2813 28.2813 28.2813 28.2813 28.2813 28.2813 28.2813 36.2813 28.2813 28.2813 82.2813 28.2813 28.2813 284.281 28.2813 28.2813 28.2813 28.2813 28.2813 28.2813 28.2813 28.2813 28.2813 28.2813 28.2813 28.2813 28.2813 28.2813 972.281 28.2813 28.2813 28.2813 28.2813 28.2813 28.2813 28.2813 317.281 42.2813 28.2813 28.2813 28.2813 28.2813 28.2813 28.2813 99.2813 28.2813 28.2813 28.2813 28.2813 963.281 28.2813 28.2813 28.2813 28.2813 28.2813 28.2813 28.2813 28.2813 28.2813 28.2813 28.2813 28.2813 28.2813 28.2813 28.2813 28.2813 28.2813 28.2813 28.2813 34.2813 138.281 28.2813 28.2813 28.2813 28.2813 28.2813 28.2813 28.2813 314.281 31.2813 28.2813 28.2813 28.2813 28.2813 28.2813 28.2813 28.2813 28.2813 28.2813 28.2813 28.2813 126.281 28.2813 28.2813 28.2813 28.2813 28.2813 30.2813 28.2813 28.2813 28.2813 28.2813 28.2813 28.2813 28.2813 28.2813 28.2813 28.2813 28.2813 28.2813 28.2813 28.2813 972.281 28.2813 28.2813 28.2813 28.2813 28.2813 28.2813 28.2813 28.2813 28.2813 28.2813 28.2813 28.2813 28.2813 28.2813 28.2813 28.2813 28.2813 28.2813 28.2813 46.2813 234.281 28.2813 28.2813 28.2813 28.2813 28.2813 28.2813 28.2813 28.2813 28.2813 28.2813 28.2813 28.2813 28.2813 28.2813 28.2813 28.2813 28.2813 28.2813 28.2813 52.2813 165.281 28.2813 28.2813 28.2813 28.2813 28.2813 28.2813 28.2813 28.2813 28.2813 28.2813 28.2813 28.2813 28.2813 28.2813 28.2813 28.2813 28.2813 28.2813 28.2813 56.2813 58.2813 28.2813 28.2813 28.2813 28.2813 28.2813 28.2813 28.2813 28.2813 28.2813 28.2813 28.2813 28.2813 28.2813 28.2813 28.2813 43.2813 32.2813 28.2813 64.2813 69.2813 28.2813 28.2813 28.2813 28.2813 28.2813 28.2813 28.2813 28.2813 28.2813 28.2813 28.2813 28.2813 28.2813 32.2813 28.2813 28.2813 28.2813 28.2813 28.2813 28.2813 28.2813 28.2813 28.2813 28.2813 28.2813 28.2813 28.2813 28.2813 28.2813 28.2813 28.2813 28.2813 30.2813 28.2813 28.2813 28.2813 28.2813 28.2813 40.2813 45.2813 52.2813 28.2813 28.2813 28.2813 28.2813 28.2813 28.2813 28.2813 28.2813 28.2813 28.2813 28.2813 28.2813 28.2813 28.2813 28.2813 28.2813 28.2813 28.2813 28.2813 43.2813 28.2813 28.2813 36.2813 334.281 28.2813 28.2813 28.2813 28.2813 28.2813 28.2813 28.2813 28.2813 28.2813 28.2813 28.2813 28.2813 28.2813 28.2813 63.2813 398.281 28.2813 32.2813 28.2813 28.2813 28.2813 28.2813 28.2813 28.2813 28.2813 28.2813 28.2813 28.2813 28.2813 28.2813 28.2813 149.281 28.2813 28.2813 28.2813 28.2813 38.2813 28.2813 28.2813 28.2813 28.2813 239.281 34.2813 28.2813 380.281 28.2813 28.2813 28.2813 28.2813 28.2813 28.2813 28.2813 28.2813 28.2813 28.2813 28.2813 154.281 35.2813 29.2813 28.2813 46.2813 28.2813 42.2813 28.2813 35.2813 28.2813 28.2813 28.2813 28.2813 28.2813 28.2813 28.2813 28.2813 28.2813 33.2813 28.2813 28.2813 28.2813 28.2813 28.2813 28.2813 28.2813 28.2813 28.2813 28.2813 28.2813 28.2813 28.2813 28.2813 28.2813 28.2813 28.2813 28.2813 28.2813 28.2813 28.2813 28.2813 28.2813 89.2813 28.2813 28.2813 52.2813 28.2813 28.2813 28.2813 28.2813 28.2813 28.2813 28.2813 28.2813 28.2813 28.2813 28.2813 28.2813 28.2813 253.281 28.2813 28.2813 28.2813 28.2813 28.2813 28.2813 28.2813 28.2813 28.2813 37.2813 28.2813 28.2813 28.2813 28.2813 28.2813 28.2813 279.281 28.2813 28.2813 28.2813 28.2813 28.2813 103.281 190.281 56.2813 28.2813 28.2813 29.2813 28.2813 28.2813 28.2813 28.2813 28.2813 28.2813 28.2813 28.2813 28.2813 28.2813 28.2813 28.2813 28.2813 28.2813 28.2813 28.2813 28.2813 28.2813 28.2813 28.2813 28.2813 28.2813 28.2813 42.2813 40.2813 28.2813 28.2813 28.2813 28.2813 28.2813 28.2813 28.2813 28.2813 28.2813 28.2813 28.2813 28.2813 28.2813 28.2813 28.2813 28.2813 28.2813 28.2813 28.2813 28.2813 28.2813 28.2813 28.2813 28.2813 28.2813 28.2813 28.2813 34.2813 28.2813 28.2813 34.2813 28.2813 28.2813 28.2813 33.2813 28.2813 28.2813 28.2813 28.2813 28.2813 28.2813 28.2813 28.2813 28.2813 488.281 28.2813 28.2813 34.2813 30.2813 28.2813 28.2813 28.2813 154.281 28.2813 28.2813 28.2813 28.2813 33.2813 28.2813 28.2813 28.2813 28.2813 28.2813 28.2813 28.2813 28.2813 28.2813 28.2813 28.2813 28.2813 28.2813 34.2813 80.2813 28.2813 28.2813 28.2813 28.2813 28.2813 28.2813 28.2813 28.2813 55.2813 75.2813 28.2813 29.2813 28.2813 28.2813 28.2813 56.2813 104.281 28.2813 28.2813 28.2813 28.2813 28.2813 28.2813 28.2813 28.2813 28.2813 28.2813 28.2813 28.2813 28.2813 28.2813 28.2813 34.2813 28.2813 28.2813 28.2813 28.2813 28.2813 28.2813 28.2813 388.281 28.2813 28.2813 28.2813 49.2813 28.2813 28.2813 28.2813 28.2813 28.2813 28.2813 28.2813 28.2813 28.2813 330.281 28.2813 28.2813 32.2813 28.2813 28.2813 28.2813 28.2813 184.281 28.2813 28.2813 28.2813 28.2813 28.2813 28.2813 28.2813 28.2813 28.2813 28.2813 28.2813 28.2813 28.2813 28.2813 28.2813 28.2813 28.2813 28.2813 28.2813 91.2813 28.2813 28.2813 28.2813 28.2813 28.2813 28.2813 28.2813 28.2813 28.2813 29.2813 28.2813 28.2813 58.2813 53.2813 28.2813 28.2813 28.2813 28.2813 28.2813 28.2813 127.281 28.2813 28.2813 28.2813 28.2813 28.2813 28.2813 28.2813 28.2813 28.2813 28.2813 28.2813 55.2813 28.2813 28.2813 28.2813 28.2813 28.2813 28.2813 28.2813 28.2813 28.2813 28.2813 28.2813 28.2813 28.2813 28.2813 28.2813 28.2813 28.2813 28.2813 34.2813 28.2813 29.2813 28.2813 28.2813 28.2813 28.2813 28.2813 28.2813 28.2813 28.2813 28.2813 158.281 28.2813 28.2813 28.2813 28.2813 28.2813 28.2813 28.2813 29.2813 28.2813 28.2813 28.2813 28.2813 102.281 28.2813 28.2813 28.2813 28.2813 91.2813 28.2813 28.2813 28.2813 28.2813 28.2813 28.2813 28.2813 28.2813 28.2813 28.2813 28.2813 28.2813 28.2813 28.2813 28.2813 28.2813 28.2813 28.2813 28.2813 28.2813 28.2813 28.2813 28.2813 28.2813 28.2813 28.2813 28.2813 28.2813 28.2813 28.2813 28.2813 76.2813 160.281 55.2813 68.2813 28.2813 28.2813 28.2813 28.2813 28.2813 28.2813 28.2813 28.2813 28.2813 41.2813 28.2813 28.2813 28.2813 28.2813 28.2813 28.2813 41.2813 28.2813 28.2813 28.2813 28.2813 28.2813 
rewards of Offsets elements: 0 0 0 1134 1513 420 0 0 793 508 582 0 0 0 0 0 825 0 0 0 0 427 0 245 0 0 0 0 0 1478 0 0 868 67 0 0 0 0 0 0 0 0 0 0 0 0 0 0 0 0 0 0 0 0 0 1260 0 0 0 0 0 0 0 0 0 0 0 0 0 0 0 0 0 0 0 0 0 0 0 0 0 0 0 0 0 0 0 0 0 0 81 12 0 43 0 56 20 0 0 0 0 53 0 0 146 405 0 0 0 0 0 0 0 0 0 0 0 6 0 199 0 0 0 0 0 0 0 0 0 939 0 0 0 0 0 0 0 0 0 0 364 0 48 143 36 0 1 1 0 1284 0 0 394 1282 0 0 0 707 731 0 0 0 0 200 0 0 0 0 0 0 0 0 0 0 0 0 0 0 838 21 46 0 0 44 0 0 0 116 2 1 0 0 0 0 1 8 0 0 0 0 0 0 424 0 0 0 0 0 0 4 15 0 0 0 0 32 0 0 0 0 0 0 49 0 0 0 0 0 0 0 0 64 528 0 0 0 0 0 0 0 0 0 10 0 0 249 0 81 0 0 0 0 0 0 0 0 0 0 0 0 0 98 558 0 0 18 392 251 0 0 0 0 0 315 668 0 0 0 0 0 0 121 49 0 0 0 434 0 0 0 0 0 44 0 0 0 0 0 0 0 0 0 0 0 0 0 0 58 0 141 36 63 1 180 20 2 4 0 0 8 0 0 0 0 0 0 0 0 0 0 0 0 0 5 0 0 17 7 0 9 0 0 0 0 186 52 18 0 0 0 0 138 0 108 0 0 0 102 14 0 0 0 0 0 0 0 0 0 0 0 0 0 0 0 0 0 0 0 0 205 0 0 0 0 0 0 0 0 0 0 0 0 0 240 0 0 0 0 0 0 20 0 0 0 0 0 0 18 0 0 0 47 0 0 1 0 0 0 0 0 0 1 0 0 0 0 0 0 0 51 63 0 0 0 57 0 0 0 0 0 0 0 11 0 0 0 0 0 0 0 0 0 0 0 0 0 0 0 0 0 0 0 0 42 0 0 0 0 0 0 0 0 2 0 0 0 0 0 0 0 0 0 0 0 264 0 0 12 4 0 0 0 0 0 0 0 0 0 0 0 0 0 90 0 0 0 0 0 0 0 0 0 0 0 0 0 0 0 0 0 0 0 0 0 1 64 49 0 0 0 1 0 0 0 0 0 0 0 0 0 0 0 0 0 0 0 0 0 0 0 0 0 0 0 21 0 0 0 0 0 0 0 0 0 0 0 0 0 6 0 0 0 8 0 0 0 0 0 0 0 0 0 0 51 82 120 0 0 0 0 0 0 254 0 0 1 0 0 0 0 0 0 1 423 0 0 0 0 0 0 18 14 9 108 29 0 0 2 0 0 0 0 0 0 0 0 0 0 0 0 0 0 0 0 0 0 0 13 0 0 0 0 0 0 0 0 0 0 0 0 105 0 0 0 10 5 0 0 0 0 0 0 0 0 0 0 0 0 0 0 0 0 477 0 0 0 0 0 0 516 0 0 0 0 4 307 16 74 0 0 0 0 0 197 0 0 0 0 0 0 0 0 0 0 0 0 0 0 0 0 367 0 0 0 0 0 0 0 276 0 0 0 0 0 0 0 431 185 292 54 0 0 0 0 0 0 120 0 0 0 0 0 0 294 0 0 0 0 0 0 0 0 0 0 0 0 0 119 0 0 0 0 0 0 0 0 0 0 9 8 0 0 0 225 0 0 0 0 0 0 0 0 0 0 0 0 0 0 0 0 0 0 0 0 0 0 0 0 0 0 0 0 0 0 0 0 0 0 0 0 42 100 0 0 0 0 0 0 0 0 0 0 0 0 0 0 0 0 0 0 0 0 0 0 0 0 0 0 0 0 0 0 0 0 0 0 0 0 0 0 0 0 0 84 0 0 0 0 0 0 0 0 0 0 0 0 0 0 0 0 0 0 0 0 13 0 0 0 0 0 0 0 0 0 0 0 0 0 0 0 0 0 0 0 0 14 8 0 0 0 0 0 0 0 0 0 0 0 0 0 0 0 0 0 0 0 0 0 0 0 0 0 0 0 0 0 0 0 0 0 0 0 0 0 0 0 0 118 3 0 0 0 0 0 0 0 0 0 0 0 0 0 0 0 0 0 0 0 0 0 0 0 16 0 0 0 0 0 0 0 0 0 0 0 0 0 0 0 0 654 0 0 0 0 0 0 0 0 0 0 0 0 0 0 0 0 0 0 0 0 0 30 0 20 0 0 0 0 0 0 0 0 0 0 0 0 0 0 0 0 0 0 0 0 0 0 0 0 0 0 0 0 0 0 0 0 0 0 0 0 0 0 0 0 0 0 0 0 0 0 0 0 0 44 9 0 0 0 0 0 0 0 0 0 0 0 0 0 0 0 0 46 1 8 0 0 0 0 0 0 0 0 0 0 0 0 0 0 0 0 0 0 0 6 23 0 0 0 0 0 0 0 0 0 0 0 0 0 0 0 0 0 0 0 0 0 0 0 0 0 0 0 0 0 0 0 0 0 0 0 0 0 0 0 0 0 23 0 0 0 0 0 0 0 0 0 0 0 0 0 0 0 0 0 0 0 0 2 202 0 0 0 0 0 0 0 0 0 0 0 0 0 0 44 0 0 0 0 28 35 0 0 0 0 0 0 0 0 0 4 0 0 0 0 0 0 0 0 0 4 172 0 14 0 0 0 0 0 0 0 0 0 0 0 0 0 0 0 0 0 0 25 0 0 0 0 0 0 0 0 0 296 0 0 0 0 0 0 0 0 0 0 0 0 0 0 0 0 0 0 0 0 298 0 0 0 0 0 0 0 0 0 9 18 140 0 0 0 0 0 0 0 0 0 0 0 0 0 0 0 0 0 0 0 0 0 0 0 0 0 0 0 0 0 0 0 0 0 0 0 0 0 0 0 0 0 0 0 0 0 0 0 0 0 0 0 0 14 0 0 0 0 0 0 0 0 0 0 0 0 0 0 24 0 0 4 0 0 0 0 0 0 0 0 0 0 0 0 0 0 0 0 5 0 0 0 0 0 0 5 0 0 39 0 0 0 283 0 0 0 0 0 0 0 0 0 0 148 0 0 0 0 0 0 8 0 1 4 0 0 0 0 0 0 0 0 0 0 3 0 0 18 46 0 0 0 0 0 729 0 0 0 0 0 0 0 0 0 0 0 0 0 0 0 195 0 0 0 0 344 0 0 0 205 0 0 0 0 14 0 0 0 0 0 0 0 0 0 0 0 0 2 0 0 0 0 0 0 0 3 89 69 0 0 0 0 0 0 296 0 0 0 12 36 6 0 0 42 0 0 0 0 0 0 0 0 0 0 0 0 0 0 172 0 0 0 0 0 0 0 0 0 0 0 0 0 0 0 0 0 0 0 0 4 0 0 0 0 0 0 0 0 0 0 0 0 0 0 0 0 0 0 0 216 108 0 0 0 0 0 0 0 0 0 0 0 0 0 0 0 0 0 0 0 0 0 54 0 0 223 0 0 0 0 0 0 0 0 0 0 0 0 0 16 40 0 56 0 0 0 0 0 0 0 1 0 0 0 0 0 0 0 0 0 0 0 0 82 315 0 0 0 0 0 0 0 0 0 0 0 0 0 0 0 0 0 0 0 0 8 0 0 54 0 0 256 0 0 0 0 0 0 0 0 0 0 0 0 0 0 944 0 0 0 0 0 0 0 289 14 0 0 0 0 0 0 71 0 0 0 0 935 0 0 0 0 0 0 0 0 0 0 0 0 0 0 0 0 0 0 0 6 110 0 0 0 0 0 0 0 286 3 0 0 0 0 0 0 0 0 0 0 0 98 0 0 0 0 0 2 0 0 0 0 0 0 0 0 0 0 0 0 0 0 944 0 0 0 0 0 0 0 0 0 0 0 0 0 0 0 0 0 0 0 18 206 0 0 0 0 0 0 0 0 0 0 0 0 0 0 0 0 0 0 0 24 137 0 0 0 0 0 0 0 0 0 0 0 0 0 0 0 0 0 0 0 28 30 0 0 0 0 0 0 0 0 0 0 0 0 0 0 0 15 4 0 36 41 0 0 0 0 0 0 0 0 0 0 0 0 0 4 0 0 0 0 0 0 0 0 0 0 0 0 0 0 0 0 0 0 2 0 0 0 0 0 12 17 24 0 0 0 0 0 0 0 0 0 0 0 0 0 0 0 0 0 0 0 15 0 0 8 306 0 0 0 0 0 0 0 0 0 0 0 0 0 0 35 370 0 4 0 0 0 0 0 0 0 0 0 0 0 0 0 121 0 0 0 0 10 0 0 0 0 211 6 0 352 0 0 0 0 0 0 0 0 0 0 0 126 7 1 0 18 0 14 0 7 0 0 0 0 0 0 0 0 0 5 0 0 0 0 0 0 0 0 0 0 0 0 0 0 0 0 0 0 0 0 0 0 0 61 0 0 24 0 0 0 0 0 0 0 0 0 0 0 0 0 225 0 0 0 0 0 0 0 0 0 9 0 0 0 0 0 0 251 0 0 0 0 0 75 162 28 0 0 1 0 0 0 0 0 0 0 0 0 0 0 0 0 0 0 0 0 0 0 0 0 0 0 14 12 0 0 0 0 0 0 0 0 0 0 0 0 0 0 0 0 0 0 0 0 0 0 0 0 0 0 0 6 0 0 6 0 0 0 5 0 0 0 0 0 0 0 0 0 460 0 0 6 2 0 0 0 126 0 0 0 0 5 0 0 0 0 0 0 0 0 0 0 0 0 0 6 52 0 0 0 0 0 0 0 0 27 47 0 1 0 0 0 28 76 0 0 0 0 0 0 0 0 0 0 0 0 0 0 0 6 0 0 0 0 0 0 0 360 0 0 0 21 0 0 0 0 0 0 0 0 0 302 0 0 4 0 0 0 0 156 0 0 0 0 0 0 0 0 0 0 0 0 0 0 0 0 0 0 0 63 0 0 0 0 0 0 0 0 0 1 0 0 30 25 0 0 0 0 0 0 99 0 0 0 0 0 0 0 0 0 0 0 27 0 0 0 0 0 0 0 0 0 0 0 0 0 0 0 0 0 0 6 0 1 0 0 0 0 0 0 0 0 0 130 0 0 0 0 0 0 0 1 0 0 0 0 74 0 0 0 0 63 0 0 0 0 0 0 0 0 0 0 0 0 0 0 0 0 0 0 0 0 0 0 0 0 0 0 0 0 0 0 0 48 132 27 40 0 0 0 0 0 0 0 0 0 13 0 0 0 0 0 0 13 0 0 0 0 0 Printing Sanity3
offset_index value2337
offset list size2337
reward size2337
potential size2337
-----------------------------------------------------------------------------------------------------------------------------------------------------------------------------------------------------

DRAM Statistics
 CHANNEL 0
 RQ ROW_BUFFER_HIT:         74  ROW_BUFFER_MISS:       1162
 DBUS_CONGESTED:          0
 WQ ROW_BUFFER_HIT:          2  ROW_BUFFER_MISS:        105  FULL:          0

 AVG_CONGESTED_CYCLE: -
 All warmup complete: 2
Channel 0 Bank busy for read cycles: 0
Channel 0 Bank busy for write cycles: 0
Channel 0
Rank 0
0banks busy for read cycles: 648914130
0banks busy for write cycles: 97
1banks busy for read cycles: 161389
1banks busy for write cycles: 13993
2banks busy for read cycles: 7671
2banks busy for write cycles: 724
3banks busy for read cycles: 359
3banks busy for write cycles: 262
4banks busy for read cycles: 48
4banks busy for write cycles: 0
5banks busy for read cycles: 0
5banks busy for write cycles: 0
6banks busy for read cycles: 0
6banks busy for write cycles: 0
7banks busy for read cycles: 0
7banks busy for write cycles: 0
8banks busy for read cycles: 0
8banks busy for write cycles: 0

CPU 0 Branch Prediction Accuracy: 99.8925% MPKI: 0.1929 Average ROB Occupancy at Mispredict: 32.3791
Branch types
NOT_BRANCH: 164102646 82.0513%
BRANCH_DIRECT_JUMP: 1886938 0.943469%
BRANCH_INDIRECT: 11997161 5.99858%
BRANCH_CONDITIONAL: 12811847 6.40592%
BRANCH_DIRECT_CALL: 3870839 1.93542%
BRANCH_INDIRECT_CALL: 729710 0.364855%
BRANCH_RETURN: 4600610 2.3003%
BRANCH_OTHER: 0 0%

DRAM PAGES: 1048576
Allocated PAGES: 1781
