
*** ChampSim Multicore Out-of-Order Simulator ***

Warmup Instructions: 50000000
Simulation Instructions: 200000000
Number of CPUs: 1
LLC sets: 2048
LLC ways: 16
Off-chip DRAM Size: 4096 MB Channels: 1 Width: 64-bit Data Rate: 6400 MT/s
CPU 0 runs traces/spec2k17/client_006.champsimtrace.xz
.xz
BTB has LRU replacement policy
ITLB has LRU replacement policy
DTLB has LRU replacement policy
STLB has LRU replacement policy
L1I has LRU replacement policy
L1D has LRU replacement policy
Initialize SRRIP state for L2C
Initialize DRRIP state for LLC
Offsets elements: 
Potential of Offsets elements: 
rewards of Offsets elements: 
Printing Sanity1
offset list size1614
Offsets elements: 
Potential of Offsets elements: 
rewards of Offsets elements: 1265 1516 130 0 500 223 256 0 18 0 442 0 0 0 0 0 0 0 1 0 0 1524 0 0 0 0 0 0 0 0 0 14 140 0 0 0 0 0 0 0 0 0 0 0 0 0 0 0 0 0 0 0 7 0 0 0 0 0 0 0 0 0 0 0 0 0 0 0 23 0 0 0 0 0 0 0 0 0 52 118 414 102 106 26 48 24 42 404 319 0 0 0 24 96 0 0 0 0 0 251 0 0 0 0 186 120 114 0 0 0 0 0 0 0 0 0 0 0 0 0 0 0 46 0 0 0 0 0 0 0 0 0 0 157 0 0 0 0 0 0 499 0 0 0 48 0 0 0 0 0 0 0 0 0 0 0 0 0 0 0 0 0 0 0 2 28 0 0 0 0 0 0 20 0 0 0 0 0 0 0 0 99 21 86 634 0 0 35 0 0 0 0 0 0 26 77 0 0 0 0 0 0 0 0 0 0 0 54 0 0 0 0 0 0 0 0 0 0 0 0 0 420 0 0 0 0 0 0 0 0 0 0 0 0 0 0 10 0 0 0 0 0 0 0 0 0 0 0 0 0 0 0 0 0 0 0 0 0 0 0 0 0 0 0 0 0 0 0 0 0 1734 0 0 0 0 0 0 0 0 0 0 0 0 0 0 0 0 0 0 0 0 0 0 0 0 0 0 0 0 0 0 0 0 0 0 0 0 0 0 0 3 0 0 0 0 0 0 0 0 0 0 0 0 0 0 0 0 0 0 0 0 0 0 0 0 0 0 0 0 0 0 0 0 0 0 0 0 0 0 0 0 0 0 0 0 0 0 0 0 0 0 0 0 0 0 0 0 0 0 0 0 0 0 0 0 0 0 0 0 0 0 0 0 0 0 150 0 0 0 80 0 0 0 0 0 0 0 0 0 0 297 0 0 0 0 0 0 0 0 0 0 0 0 0 0 0 0 0 0 0 0 0 0 0 0 0 0 0 0 0 0 6 0 0 0 0 0 0 0 0 0 0 0 0 0 0 0 0 0 0 0 0 0 0 0 0 0 0 0 0 0 0 0 0 0 0 0 0 0 0 0 0 0 0 0 0 0 0 0 0 0 0 0 0 0 0 0 0 0 0 0 0 0 0 0 0 0 0 0 0 0 0 0 0 0 0 0 26 0 0 0 0 0 0 0 0 0 0 0 0 0 0 0 0 0 0 0 0 0 0 0 0 0 0 0 0 0 0 0 0 0 0 0 0 0 0 0 0 0 0 0 0 0 0 0 0 0 0 0 0 0 0 0 0 0 0 0 0 0 0 0 0 0 0 0 0 0 0 0 0 0 0 0 1 0 0 0 0 0 0 0 0 0 0 0 4 0 0 0 0 0 0 0 0 0 0 0 0 0 0 196 0 0 0 0 0 0 0 0 0 0 0 0 0 0 0 0 0 0 0 0 0 0 0 0 0 0 0 0 0 0 0 0 0 0 0 0 0 0 0 0 0 0 0 0 0 0 0 0 0 0 0 0 0 0 55 15 0 0 0 0 0 0 0 0 0 0 0 0 0 0 0 0 0 0 0 0 0 0 0 0 0 0 0 0 0 0 0 0 0 0 0 0 0 0 0 0 0 0 0 0 0 0 0 0 0 0 0 0 0 0 0 0 0 0 0 0 0 0 0 0 0 0 0 0 0 0 0 0 0 0 0 0 0 0 0 0 0 0 0 0 0 0 0 0 0 0 0 0 0 0 0 0 0 0 0 0 0 0 5 0 0 0 0 0 0 0 0 0 0 0 0 0 0 0 0 0 0 0 0 0 0 0 0 0 0 0 0 0 0 0 0 0 0 0 0 0 0 0 0 0 0 0 0 0 0 0 0 0 0 0 0 0 0 0 0 0 0 0 0 0 0 0 0 0 0 0 1849 0 0 0 0 0 0 0 0 0 0 0 0 0 0 0 0 1 0 0 0 0 0 0 0 0 0 0 0 0 0 0 0 0 0 0 0 0 0 0 0 0 0 0 0 0 0 0 0 0 0 0 0 0 0 0 0 0 0 0 0 0 576 0 0 0 0 0 0 0 0 0 0 0 0 0 0 0 0 0 0 0 0 0 0 0 0 0 0 0 0 0 0 0 0 0 0 0 0 0 0 0 0 0 0 0 0 0 0 0 0 0 0 0 0 0 0 0 0 0 0 0 0 0 0 0 0 0 0 0 0 0 0 0 0 0 0 0 0 0 0 0 0 0 0 0 0 0 0 0 0 0 0 0 0 0 0 0 0 0 0 0 0 0 0 0 0 0 0 0 7 0 0 0 0 0 0 0 0 0 0 0 0 0 0 0 0 0 0 0 0 0 0 0 0 0 0 0 0 0 0 0 0 0 0 0 0 0 0 0 0 0 0 1407 0 0 0 0 0 0 0 0 0 0 0 0 0 0 0 0 0 0 0 0 0 0 0 0 0 0 16 0 0 0 0 0 0 0 0 0 0 0 0 0 0 0 0 0 0 0 0 0 0 0 0 0 0 0 0 0 0 0 0 0 0 9 0 0 16 0 0 0 0 0 80 0 0 0 0 0 0 0 0 0 0 0 0 0 0 0 0 0 0 0 0 0 0 0 0 0 0 0 0 0 0 0 0 0 0 0 0 0 0 0 0 0 0 0 0 0 0 0 0 0 0 0 0 0 8 0 0 0 0 0 0 0 0 0 0 0 0 0 0 0 0 0 0 0 0 0 0 0 0 0 0 0 0 0 0 0 0 0 0 0 0 0 0 0 0 0 0 0 0 0 0 0 0 0 0 0 0 0 0 0 0 0 0 0 0 0 0 0 0 0 4 0 0 0 0 0 0 0 0 0 0 0 0 0 0 0 0 0 0 0 0 0 0 0 650 0 0 0 0 0 0 0 0 0 0 0 0 0 0 0 0 0 0 0 0 0 0 0 0 0 0 0 0 0 0 0 0 0 0 0 0 0 0 0 0 0 0 0 0 0 0 0 0 0 0 0 0 0 0 0 0 0 0 0 0 0 0 0 0 0 0 0 0 0 0 0 0 0 0 0 0 0 0 0 0 0 0 18 0 0 0 0 0 0 0 0 0 0 0 0 0 0 0 182 0 0 0 0 0 0 0 0 0 0 0 0 0 0 0 0 0 0 0 0 0 0 0 0 0 0 0 0 0 0 0 0 0 0 0 0 0 0 0 0 0 0 0 0 0 0 0 0 0 0 0 0 0 0 0 0 0 0 0 0 0 0 0 0 0 0 0 0 0 0 0 0 0 0 0 0 0 0 0 0 0 0 0 0 0 0 0 0 0 0 0 0 0 0 0 0 0 0 0 0 0 0 0 0 0 0 0 0 0 0 0 0 0 0 0 0 0 0 0 0 0 0 0 0 0 0 0 0 0 0 0 0 0 0 0 0 0 0 0 0 0 0 0 0 0 0 0 0 0 0 0 0 0 0 0 0 0 0 0 0 0 0 0 0 0 0 0 0 0 0 0 404 0 0 0 0 0 0 0 0 0 0 0 0 0 0 0 0 0 0 0 0 0 0 0 0 0 0 0 0 611 0 0 0 0 0 0 0 0 0 0 0 0 0 0 0 0 0 0 0 0 0 0 0 0 0 0 0 0 0 0 0 0 0 0 0 0 0 0 0 0 0 0 0 0 0 0 0 0 
Printing Sanity2
Heartbeat CPU 0 instructions: 10000000 cycles: 3267497 heartbeat IPC: 3.06045 cumulative IPC: 3.06045 (Simulation time: 0 hr 0 min 30 sec) 
Heartbeat CPU 0 instructions: 20000002 cycles: 6461420 heartbeat IPC: 3.13095 cumulative IPC: 3.0953 (Simulation time: 0 hr 0 min 58 sec) 
Heartbeat CPU 0 instructions: 30000000 cycles: 9256919 heartbeat IPC: 3.57718 cumulative IPC: 3.24082 (Simulation time: 0 hr 1 min 20 sec) 
Heartbeat CPU 0 instructions: 40000001 cycles: 12146821 heartbeat IPC: 3.46033 cumulative IPC: 3.29304 (Simulation time: 0 hr 1 min 43 sec) 
Heartbeat CPU 0 instructions: 50000001 cycles: 15311816 heartbeat IPC: 3.15956 cumulative IPC: 3.26545 (Simulation time: 0 hr 2 min 10 sec) 

Warmup complete CPU 0 instructions: 50000001 cycles: 15311816 (Simulation time: 0 hr 2 min 10 sec) 

Heartbeat CPU 0 instructions: 60000000 cycles: 34218919 heartbeat IPC: 0.528902 cumulative IPC: 0.528902 (Simulation time: 0 hr 2 min 43 sec) 
Heartbeat CPU 0 instructions: 70000000 cycles: 57503392 heartbeat IPC: 0.429471 cumulative IPC: 0.474028 (Simulation time: 0 hr 3 min 17 sec) 
Heartbeat CPU 0 instructions: 80000000 cycles: 76049544 heartbeat IPC: 0.539195 cumulative IPC: 0.493927 (Simulation time: 0 hr 3 min 50 sec) 
Heartbeat CPU 0 instructions: 90000000 cycles: 96600814 heartbeat IPC: 0.486588 cumulative IPC: 0.492072 (Simulation time: 0 hr 4 min 20 sec) 
Heartbeat CPU 0 instructions: 100000002 cycles: 115405221 heartbeat IPC: 0.53179 cumulative IPC: 0.499533 (Simulation time: 0 hr 4 min 52 sec) 
*** Reached end of trace for Core: 0 Repeating trace: traces/spec2k17/client_006.champsimtrace.xz
Heartbeat CPU 0 instructions: 110000000 cycles: 132579820 heartbeat IPC: 0.582255 cumulative IPC: 0.511648 (Simulation time: 0 hr 5 min 30 sec) 
Heartbeat CPU 0 instructions: 120000003 cycles: 149964160 heartbeat IPC: 0.575231 cumulative IPC: 0.519857 (Simulation time: 0 hr 6 min 8 sec) 
Heartbeat CPU 0 instructions: 130000002 cycles: 167715930 heartbeat IPC: 0.563324 cumulative IPC: 0.52492 (Simulation time: 0 hr 6 min 41 sec) 
Heartbeat CPU 0 instructions: 140000002 cycles: 184749403 heartbeat IPC: 0.587079 cumulative IPC: 0.531169 (Simulation time: 0 hr 7 min 13 sec) 
Heartbeat CPU 0 instructions: 150000001 cycles: 205508771 heartbeat IPC: 0.48171 cumulative IPC: 0.525771 (Simulation time: 0 hr 7 min 53 sec) 
Heartbeat CPU 0 instructions: 160000000 cycles: 223256526 heartbeat IPC: 0.563451 cumulative IPC: 0.528987 (Simulation time: 0 hr 8 min 25 sec) 
Heartbeat CPU 0 instructions: 170000000 cycles: 247010100 heartbeat IPC: 0.420989 cumulative IPC: 0.517915 (Simulation time: 0 hr 8 min 59 sec) 
Heartbeat CPU 0 instructions: 180000003 cycles: 265907205 heartbeat IPC: 0.529182 cumulative IPC: 0.518765 (Simulation time: 0 hr 9 min 32 sec) 
Heartbeat CPU 0 instructions: 190000000 cycles: 286112284 heartbeat IPC: 0.494925 cumulative IPC: 0.516986 (Simulation time: 0 hr 10 min 2 sec) 
Heartbeat CPU 0 instructions: 200000000 cycles: 304732766 heartbeat IPC: 0.537043 cumulative IPC: 0.518276 (Simulation time: 0 hr 10 min 34 sec) 
*** Reached end of trace for Core: 0 Repeating trace: traces/spec2k17/client_006.champsimtrace.xz
Heartbeat CPU 0 instructions: 210000003 cycles: 322096577 heartbeat IPC: 0.575911 cumulative IPC: 0.521538 (Simulation time: 0 hr 11 min 12 sec) 
Heartbeat CPU 0 instructions: 220000000 cycles: 339558863 heartbeat IPC: 0.572663 cumulative IPC: 0.524292 (Simulation time: 0 hr 11 min 50 sec) 
Heartbeat CPU 0 instructions: 230000000 cycles: 356387317 heartbeat IPC: 0.594232 cumulative IPC: 0.527742 (Simulation time: 0 hr 12 min 22 sec) 
Heartbeat CPU 0 instructions: 240000002 cycles: 374049589 heartbeat IPC: 0.566179 cumulative IPC: 0.529635 (Simulation time: 0 hr 12 min 55 sec) 
Heartbeat CPU 0 instructions: 250000000 cycles: 394126295 heartbeat IPC: 0.49809 cumulative IPC: 0.527963 (Simulation time: 0 hr 13 min 35 sec) 
Finished CPU 0 instructions: 200000003 cycles: 378814487 cumulative IPC: 0.527963 (Simulation time: 0 hr 13 min 35 sec) 

ChampSim completed all CPUs

Region of Interest Statistics

CPU 0 cumulative IPC: 0.527963 instructions: 200000003 cycles: 378814487
ITLB TOTAL     ACCESS:   31691200  HIT:   31196154  MISS:     495046  HIT %:    98.4379  MISS %:    1.56209   MPKI: 2.47523
ITLB LOAD TRANSLATION ACCESS:   31691200  HIT:   31196154  MISS:     495046  HIT %:    98.4379  MISS %:    1.56209   MPKI: 2.47523
ITLB PREFETCH  REQUESTED:          0  ISSUED:          0  USEFUL:          0  USELESS:          0
ITLB USEFUL LOAD PREFETCHES:          0 PREFETCH ISSUED TO LOWER LEVEL:          0  ACCURACY: -nan
ITLB TIMELY PREFETCHES:          0 LATE PREFETCHES: 0 DROPPED PREFETCHES: 0
ITLB PREFETCHES SAME FILL-ORIGIN LEVEL: 0 DIFFERENT FILL-ORIGIN LEVEL: 0
ITLB AVERAGE MISS LATENCY: 11.3133 cycles
ITLB RQ	ACCESS:   37645929	FORWARD:          0	MERGED:    5899874	TO_CACHE:   31746055

DTLB TOTAL     ACCESS:   40925892  HIT:   39679235  MISS:    1246657  HIT %:    96.9539  MISS %:    3.04613   MPKI: 6.23328
DTLB LOAD TRANSLATION ACCESS:   40925892  HIT:   39679235  MISS:    1246657  HIT %:    96.9539  MISS %:    3.04613   MPKI: 6.23328
DTLB PREFETCH  REQUESTED:          0  ISSUED:          0  USEFUL:          0  USELESS:          0
DTLB USEFUL LOAD PREFETCHES:          0 PREFETCH ISSUED TO LOWER LEVEL:          0  ACCURACY: -nan
DTLB TIMELY PREFETCHES:          0 LATE PREFETCHES: 0 DROPPED PREFETCHES: 0
DTLB PREFETCHES SAME FILL-ORIGIN LEVEL: 0 DIFFERENT FILL-ORIGIN LEVEL: 0
DTLB AVERAGE MISS LATENCY: 15.3422 cycles
DTLB RQ	ACCESS:   50636477	FORWARD:          0	MERGED:    9645044	TO_CACHE:   40991433

STLB TOTAL     ACCESS:   27587741  HIT:   27495919  MISS:      91822  HIT %:    99.6672  MISS %:   0.332836   MPKI: 0.45911
STLB LOAD TRANSLATION ACCESS:    1741703  HIT:    1651267  MISS:      90436  HIT %:    94.8076  MISS %:    5.19239   MPKI: 0.45218
STLB TRANSLATION FROM L1D PREFETCHER ACCESS:   25846038  HIT:   25844652  MISS:       1386  HIT %:    99.9946  MISS %: 0.00536252   MPKI: 0.00693
STLB PREFETCH  REQUESTED:          0  ISSUED:          0  USEFUL:       1302  USELESS:         85
STLB USEFUL LOAD PREFETCHES:       1302 PREFETCH ISSUED TO LOWER LEVEL:          0  ACCURACY: inf
STLB TIMELY PREFETCHES:       1302 LATE PREFETCHES: 7 DROPPED PREFETCHES: 833870
STLB PREFETCHES SAME FILL-ORIGIN LEVEL: 0 DIFFERENT FILL-ORIGIN LEVEL: 0
STLB AVERAGE MISS LATENCY: 2855.47 cycles
STLB RQ	ACCESS:   33843222	FORWARD:          0	MERGED:    5421394	TO_CACHE:   28421828

STLB Hit, L1D data hit: 0
STLB Hit, L2C data hit: 0
STLB Hit, LLC data hit: 0
STLB Hit, LLC data miss: 0
STLB STLB hints to L2: 0
L1D TOTAL     ACCESS:   80412121  HIT:   75959065  MISS:    4453056  HIT %:    94.4622  MISS %:    5.53779   MPKI: 22.2653
L1D LOAD      ACCESS:   33630897  HIT:   30951854  MISS:    2679043  HIT %:     92.034  MISS %:    7.96602   MPKI: 13.3952
L1D RFO       ACCESS:   16207050  HIT:   15908647  MISS:     298403  HIT %:    98.1588  MISS %:    1.84119   MPKI: 1.49201
L1D PREFETCH  ACCESS:   30574174  HIT:   29098564  MISS:    1475610  HIT %:    95.1737  MISS %:    4.82633   MPKI: 7.37805
AGUS PREFETCH L1 MISS: 0
L1D PREFETCH  REQUESTED:   65985342  ISSUED:   65984269  USEFUL:     122526  USELESS:    1353159
L1D USEFUL LOAD PREFETCHES:     122526 PREFETCH ISSUED TO LOWER LEVEL:    1479779  ACCURACY: 8.28002
L1D TIMELY PREFETCHES:     122526 LATE PREFETCHES: 3688 DROPPED PREFETCHES: 834186
L1D PREFETCHES SAME FILL-ORIGIN LEVEL: 1479779 DIFFERENT FILL-ORIGIN LEVEL: 0
L1D AVERAGE MISS LATENCY: 172420 cycles
L1D RQ	ACCESS:   49374360	FORWARD:          0	MERGED:   15284001	TO_CACHE:   33883823
L1D WQ	ACCESS:   17096511	FORWARD:     222871	MERGED:     343857	TO_CACHE:   16752654
L1D PQ	ACCESS:   33882750	FORWARD:          0	MERGED:    1764896	TO_CACHE:   32101519

L1D UNIQUE REGIONS ACCESSED: 0
L1D REGIONS CONFLICTS: 0
L1D Cross Page Prefetch Requests: 2286696
L1D Same Page Prefetch Requests: 40286205
L1D ROI Sum of L1D PQ occupancy: 477119478
L1D PREFETCHES PUSHED FROM L2C: 0
L1I TOTAL     ACCESS:   36774330  HIT:   34326505  MISS:    2447825  HIT %:    93.3437  MISS %:    6.65634   MPKI: 12.2391
L1I LOAD      ACCESS:   36774330  HIT:   34326505  MISS:    2447825  HIT %:    93.3437  MISS %:    6.65634   MPKI: 12.2391
L1I PREFETCH  REQUESTED:          0  ISSUED:          0  USEFUL:          0  USELESS:          0
L1I USEFUL LOAD PREFETCHES:          0 PREFETCH ISSUED TO LOWER LEVEL:          0  ACCURACY: -nan
L1I TIMELY PREFETCHES:          0 LATE PREFETCHES: 0 DROPPED PREFETCHES: 0
L1I PREFETCHES SAME FILL-ORIGIN LEVEL: 0 DIFFERENT FILL-ORIGIN LEVEL: 0
L1I AVERAGE MISS LATENCY: 20.3533 cycles
L1I RQ	ACCESS:   57392013	FORWARD:          0	MERGED:   19746084	TO_CACHE:   37645929

BTB TOTAL     ACCESS:   25851431  HIT:   24123561  MISS:    1727870  HIT %:    93.3162  MISS %:    6.68385   MPKI: 8.63935
BTB BRANCH_DIRECT_JUMP	ACCESS:    1806110  HIT:    1783873  MISS:      22237
BTB BRANCH_INDIRECT	ACCESS:    7197242  HIT:    6432278  MISS:     764964
BTB BRANCH_CONDITIONAL	ACCESS:   11207264  HIT:   11165234  MISS:      42030
BTB BRANCH_DIRECT_CALL	ACCESS:    1904339  HIT:    1877546  MISS:      26793
BTB BRANCH_INDIRECT_CALL	ACCESS:     912580  HIT:     722486  MISS:     190094
BTB BRANCH_RETURN	ACCESS:    2823896  HIT:    2142144  MISS:     681752
BTB BRANCH_OTHER ACCESS:          0  HIT:          0  MISS:          0

L2C TOTAL     ACCESS:    9549758  HIT:    7488029  MISS:    2061729  HIT %:    78.4107  MISS %:    21.5893   MPKI: 10.3086
L2C LOAD      ACCESS:    5123148  HIT:    3697729  MISS:    1425419  HIT %:    72.1769  MISS %:    27.8231   MPKI: 7.12709
L2C DATA LOAD MPKI: 6.43584
L2C INSTRUCTION LOAD MPKI: 0.691255
L2C RFO       ACCESS:     297900  HIT:     117104  MISS:     180796  HIT %:    39.3098  MISS %:    60.6902   MPKI: 0.90398
L2C PREFETCH  ACCESS:    1479775  HIT:    1085280  MISS:     394495  HIT %:    73.3409  MISS %:    26.6591   MPKI: 1.97247
AGUS PREFETCH L1 MISS: 0
L2C DATA PREFETCH MPKI: 1.97247
L2C INSTRUCTION PREFETCH MPKI: 0
L2C WRITEBACK ACCESS:     916949  HIT:     905865  MISS:      11084  HIT %:    98.7912  MISS %:    1.20879   MPKI: 0.05542
L2C LOAD TRANSLATION ACCESS:     100706  HIT:      51876  MISS:      48830  HIT %:    51.5123  MISS %:    48.4877   MPKI: 0.24415
L2C TRANSLATION FROM L1D PREFETCHER ACCESS:    1631280  HIT:    1630175  MISS:       1105  HIT %:    99.9323  MISS %:  0.0677382   MPKI: 0.005525
L2C PREFETCH  REQUESTED:          0  ISSUED:          0  USEFUL:      22507  USELESS:     372280
L2C USEFUL LOAD PREFETCHES:      22507 PREFETCH ISSUED TO LOWER LEVEL:     394495  ACCURACY: 5.70527
L2C TIMELY PREFETCHES:      22507 LATE PREFETCHES: 0 DROPPED PREFETCHES: 0
L2C PREFETCHES SAME FILL-ORIGIN LEVEL: 0 DIFFERENT FILL-ORIGIN LEVEL: 0
L2C AVERAGE MISS LATENCY: 120.929 cycles
L2C RQ	ACCESS:    7153086	FORWARD:          0	MERGED:          0	TO_CACHE:    7153033
L2C WQ	ACCESS:     916949	FORWARD:         57	MERGED:          0	TO_CACHE:     916949
L2C PQ	ACCESS:    1479779	FORWARD:          0	MERGED:          0	TO_CACHE:    1479775

L2C Instructions Evicting Data 116811
L2C Translations Evicting Data 43937
L2C Data Evicting Data 1701409
L2C Instructions Evicting Instructions 17103
L2C Translations Evicting Instructions 4435
L2C Data Evicting Instructions 116933
L2C Instructions Evicting Translations 4337
L2C Translations Evicting Translations 1563
L2C Data Evicting Translations 44117
L2C Dense regions hint from L2: 0
PSCL5 TOTAL     ACCESS:     925694  HIT:     925694  MISS:          0  HIT %:        100  MISS %:          0   MPKI: 0
PSCL5 LOAD TRANSLATION ACCESS:      90431  HIT:      90431  MISS:          0  HIT %:        100  MISS %:          0   MPKI: 0
PSCL5 TRANSLATION FROM L1D PREFETCHER ACCESS:     835263  HIT:     835263  MISS:          0  HIT %:        100  MISS %:          0   MPKI: 0
PSCL5 PREFETCH  REQUESTED:          0  ISSUED:          0  USEFUL:          0  USELESS:          0
PSCL5 USEFUL LOAD PREFETCHES:          0 PREFETCH ISSUED TO LOWER LEVEL:          0  ACCURACY: -nan
PSCL5 TIMELY PREFETCHES:          0 LATE PREFETCHES: 0 DROPPED PREFETCHES: 0
PSCL5 PREFETCHES SAME FILL-ORIGIN LEVEL: 0 DIFFERENT FILL-ORIGIN LEVEL: 0

PSCL4 TOTAL     ACCESS:     790123  HIT:     790008  MISS:        115  HIT %:    99.9854  MISS %:  0.0145547   MPKI: 0.000575
PSCL4 LOAD TRANSLATION ACCESS:      84631  HIT:      84516  MISS:        115  HIT %:    99.8641  MISS %:   0.135884   MPKI: 0.000575
PSCL4 TRANSLATION FROM L1D PREFETCHER ACCESS:     705492  HIT:     705492  MISS:          0  HIT %:        100  MISS %:          0   MPKI: 0
PSCL4 PREFETCH  REQUESTED:          0  ISSUED:          0  USEFUL:          0  USELESS:          0
PSCL4 USEFUL LOAD PREFETCHES:          0 PREFETCH ISSUED TO LOWER LEVEL:          0  ACCURACY: -nan
PSCL4 TIMELY PREFETCHES:          0 LATE PREFETCHES: 0 DROPPED PREFETCHES: 0
PSCL4 PREFETCHES SAME FILL-ORIGIN LEVEL: 0 DIFFERENT FILL-ORIGIN LEVEL: 0

PSCL3 TOTAL     ACCESS:     906984  HIT:     906685  MISS:        299  HIT %:     99.967  MISS %:  0.0329664   MPKI: 0.001495
PSCL3 LOAD TRANSLATION ACCESS:      90257  HIT:      89958  MISS:        299  HIT %:    99.6687  MISS %:   0.331276   MPKI: 0.001495
PSCL3 TRANSLATION FROM L1D PREFETCHER ACCESS:     816727  HIT:     816727  MISS:          0  HIT %:        100  MISS %:          0   MPKI: 0
PSCL3 PREFETCH  REQUESTED:          0  ISSUED:          0  USEFUL:          0  USELESS:          0
PSCL3 USEFUL LOAD PREFETCHES:          0 PREFETCH ISSUED TO LOWER LEVEL:          0  ACCURACY: -nan
PSCL3 TIMELY PREFETCHES:          0 LATE PREFETCHES: 0 DROPPED PREFETCHES: 0
PSCL3 PREFETCHES SAME FILL-ORIGIN LEVEL: 0 DIFFERENT FILL-ORIGIN LEVEL: 0

PSCL2 TOTAL     ACCESS:     153024  HIT:     143090  MISS:       9934  HIT %:    93.5082  MISS %:    6.49179   MPKI: 0.04967
PSCL2 LOAD TRANSLATION ACCESS:      90481  HIT:      80547  MISS:       9934  HIT %:    89.0209  MISS %:    10.9791   MPKI: 0.04967
PSCL2 TRANSLATION FROM L1D PREFETCHER ACCESS:      62543  HIT:      62543  MISS:          0  HIT %:        100  MISS %:          0   MPKI: 0
PSCL2 PREFETCH  REQUESTED:          0  ISSUED:          0  USEFUL:          0  USELESS:          0
PSCL2 USEFUL LOAD PREFETCHES:          0 PREFETCH ISSUED TO LOWER LEVEL:          0  ACCURACY: -nan
PSCL2 TIMELY PREFETCHES:          0 LATE PREFETCHES: 0 DROPPED PREFETCHES: 0
PSCL2 PREFETCHES SAME FILL-ORIGIN LEVEL: 0 DIFFERENT FILL-ORIGIN LEVEL: 0

LLC TOTAL     ACCESS:    2546950  HIT:    1389425  MISS:    1157525  HIT %:    54.5525  MISS %:    45.4475   MPKI: 5.78762
LLC LOAD      ACCESS:    1425419  HIT:     728259  MISS:     697160  HIT %:    51.0909  MISS %:    48.9091   MPKI: 3.4858
LLC RFO       ACCESS:     180796  HIT:      22749  MISS:     158047  HIT %:    12.5827  MISS %:    87.4173   MPKI: 0.790235
LLC PREFETCH  ACCESS:     394495  HIT:     147279  MISS:     247216  HIT %:    37.3336  MISS %:    62.6664   MPKI: 1.23608
AGUS PREFETCH L1 MISS: 0
LLC WRITEBACK ACCESS:     496305  HIT:     468141  MISS:      28164  HIT %:    94.3253  MISS %:    5.67474   MPKI: 0.14082
LLC LOAD TRANSLATION ACCESS:      48830  HIT:      22286  MISS:      26544  HIT %:      45.64  MISS %:      54.36   MPKI: 0.13272
LLC TRANSLATION FROM L1D PREFETCHER ACCESS:       1105  HIT:        711  MISS:        394  HIT %:    64.3439  MISS %:    35.6561   MPKI: 0.00197
LLC PREFETCH  REQUESTED:          0  ISSUED:          0  USEFUL:      10410  USELESS:     239834
LLC USEFUL LOAD PREFETCHES:      10410 PREFETCH ISSUED TO LOWER LEVEL:     247216  ACCURACY: 4.21089
LLC TIMELY PREFETCHES:      10410 LATE PREFETCHES: 0 DROPPED PREFETCHES: 0
LLC PREFETCHES SAME FILL-ORIGIN LEVEL: 0 DIFFERENT FILL-ORIGIN LEVEL: 0
LLC AVERAGE MISS LATENCY: 162.196 cycles
LLC RQ	ACCESS:    1656150	FORWARD:          0	MERGED:          0	TO_CACHE:    1656150
LLC WQ	ACCESS:     496305	FORWARD:          0	MERGED:          0	TO_CACHE:     496305
LLC PQ	ACCESS:     394495	FORWARD:          0	MERGED:          0	TO_CACHE:     394495

LLC Dense regions hint to LLC: 0

RAW hits: 2658119
Loads Generated: 52032481
Loads sent to L1D: 49374360
Stores Generated: 17096501
Stores sent to L1D: 17096511
Major fault: 0 Minor fault: 10830
Allocated PAGES: 10830
ucb ended
-----------------------------------------------------------------------------------------------------------------------------------------------------------------------------------------------------
Offsets elements: 1 2 10475666 -4397972633719 5 -12 12 4397960106974 2051082 -4397950026645 9 -12131414 8094 -8102 1690914 -4762034 3079216 12123318 -10715675 186527 -1594170 -1 4397972625628 -4397971588625 645822 4397960467132 10475671 -10475669 10475669 -10475667 -4397961138576 4397961138577 -10475662 -4397961138558 4397970645489 -4397971664984 4397971664994 -4397968098026 4397968081186 -4397967726237 4397967720822 -4397959511509 -8209313 4397967720823 -4397967720823 5415 -4397967726238 4397967726237 -4397967726236 4397968711796 -987691 -4397970889797 48 4397961401776 9506943 -4397970870629 4397970870589 968760 -4397972633715 4397971643117 21881 -9506944 -4397962158065 4397962158066 9506944 968718 -968715 -9506948 -4397962158052 3566968 354950 8209313 4397959533735 -4397967743048 4397967743049 -4397971664967 4397971664967 -4397971664982 4397971664982 -4397971664983 10 4397971664972 -4397971664972 4397962108584 -4397962108589 4397962108589 -4397962108584 -5 -7 12131053 -12131053 1690915 4397970942811 10475667 -10475666 -10475663 9506917 -9506917 9506918 -4397962158050 4397971664968 -4397971664968 4397971664971 -9506921 -14 14 -13 3566981 4397967743057 -4397959533744 -8209312 -3165690 3165691 -3165643 4397961401771 -4397961363680 3127553 -354895 -2772657 2773098 354456 4397958236123 -4397962158045 3567538 -3567538 4397962158045 -4397962158022 794344 2773170 -3567514 3921896 -3567001 3567514 -355 -3567158 3567513 -513 8565956 -12132956 12132960 3 -8565465 158 4397968074166 992367 -10475673 -4397958590505 4397958591018 -4397958236123 -3567159 8565160 -12132160 12132164 -8564667 4397968071388 -4397968071388 4397969066533 4397958590505 -4397958591018 4397958591019 -10475668 10475668 9506923 -4397971664990 36 -38 4397971664992 -4397970610672 -1054282 -3058341 3058341 -3058340 -3058339 3058339 4397972633691 -968737 -9506926 -4397962158066 -4397962158067 4397971664996 -4397971664996 -15 4397971664986 -4397971664986 4 38091 4397961363679 -4397958236126 441 -2773098 3127554 4397958236122 -4397958590506 4397958590506 -4397962158042 4397962158042 -4397960744553 -619124 -1970257 2324639 -2324639 1969744 354737 4397960560761 -4397958591017 355 4397958590859 -4397962158040 12132183 -8564647 -3567023 12132187 -8564664 8564664 8565180 -8565022 10475674 -4397969066178 513 4397958590504 10475673 -4397962158053 4397960106963 -4397960106975 12131412 -12123310 12123319 -12131421 8102 4397962149954 -3071120 4762034 -4762033 4486859 -1407642 1594169 10529148 -12123317 4397972625627 -4397972625627 1682824 -645822 4397961112954 -4397961138572 4397971614243 -4397971614223 4397970645491 -9506930 9506932 4397967743076 -16840 -5415 4397967724104 -4397970889796 4397971877487 -4397971877439 4397970889749 -4397970851658 4397970848749 -9485065 4397971665008 4397971664955 -968718 4397971665011 -9506945 10475663 4397971664983 -4397971664981 12131052 -10440138 -2 -4397968098007 8209312 -11375003 3165644 -3127551 2772656 -2773097 -3921922 3567537 -3567512 794343 -794343 3921894 159 3567512 -354 -3567157 3567511 8565797 4397960500731 8565461 -8211079 -3921894 3566999 8565975 -8565816 8565819 -12132976 4397968073811 -4397959509164 -8565160 -3566998 12132162 8564667 -8565180 4397968071387 995145 4397958591020 -4397971664991 40 4397971664952 -4397971664992 -3058303 4397974723295 4397961103747 -4397972633729 -4397962158027 4397971664953 -4397974723295 3058343 -3058300 3058302 38092 3127552 -354384 -2154046 -1413490 -4397961363676 802912 1970257 -1597279 3567536 354382 -3921918 3567023 8565001 -8565017 8565018 -8565177 8565021 4397959506366 4397958591017 -10475670 10475670 4397962158053 4397960106975 -4397947975563 -12123309 4397960098872 -4397960106974 12131420 -12123318 8093 -8100 12131416 -11086315 4397971588625 -4397962158059 4762033 4397960467144 -4397960742319 4397971217985 -4397971031458 4397970062726 -4397960467140 4397969974072 1019472 2547496 -2902425 4397970645501 -4397959533763 4397959516923 -5414 4397967726238 -2132 -4397967724105 4397967724106 -3165691 4397971877439 -4397971839348 4397961363684 9487973 -2909 -4397971643130 13 4397971664995 -4397971665009 4397971665010 -41 -4397971665000 4397971664966 -4397968097998 4397968097999 3921918 -4397959533736 -12131246 -9556383 -12131052 9506916 15 -3127550 -354897 72 794369 -794341 3567509 -3567509 3921891 160 -3567156 12132952 -8565443 -3566996 4397969066178 -4397950025058 -8565960 -353 8211079 -8565974 -12132971 3566996 8565818 -818 -4397968074324 12132160 4397968071386 4397971664989 -9506923 -4397962158068 -4397971664949 -43 -4112623 3058346 -3058345 3058345 -3058343 4397965216363 -4397971664993 -4397971664985 38093 3127551 794368 802911 -1969744 -4397958590504 354735 3567183 -3567183 8564647 -8565164 8565016 4397960501514 -4397960501514 -8565020 4397958590857 4397968071546 -9480528 -12123308 4397960098871 -8097 8100 1682815 3079218 12123315 4397960742316 -4397962149958 4397962149959 -4397960555795 -4397970619894 -1045090 1690912 1876056 -2547496 2902446 -4397970645505 11111742 -4397971839347 4397970851657 -4397970848747 4397970848748 -4397971665008 968719 -968760 -4397971664969 4397971664997 -4397968098032 4397968097998 12131245 4397959533736 -4397971664973 4397971664988 2772655 -2773168 -794370 30 3567507 -3567507 3921889 -3921889 3566994 161 8565795 -3566994 12132954 4397959508346 -4397968073811 352 8564999 -8564651 8565015 4397968071033 -4397969066691 9506924 -4397971664989 -4397971664947 1054275 3058348 -3058347 3058347 -3058346 4397972633685 9506926 -4397971664978 4397971664981 4397971664985 3566972 38094 -2508430 2154046 -3567536 354734 -4397958590856 3567184 4397969066530 -4397972633714 4397950025853 8565176 4397950025842 4397950025844 -4397950025844 4397950025845 4397971638574 -4397971638569 4397972633719 -12526751 -12123316 -8098 -1594167 -12123314 4397972625624 -10475671 -4397960467132 4397960467134 -4397961112959 4397961112963 9506931 -4397970645512 4397970645522 -4397971648154 4397971642740 -4397970623252 2547480 4397968081187 4397959511510 -4397971839346 4397970851656 21878 -9506943 4397971665009 9506945 -4397971665011 4397972633729 4397971664970 45 -4397971665014 3566982 -4397971664970 -4397967743050 4397958186667 12131230 -12131235 2772654 32 794338 2773167 -3567505 3921887 162 -3567154 12132948 -3566992 4397969066529 3567505 3567154 -162 8564998 4397960501527 -4397960501515 -4397950025840 4397960501511 9480521 -9480518 -968739 -4397971664945 1054273 3058350 -3058349 3058349 4397972633683 16 4397971664980 -4397968098014 3127550 -3127549 802910 354733 351 -351 -3567185 4397969066691 -10475674 -4397950025854 -8565002 4397958590508 4397950025849 -4397950025848 -3567028 12132203 -12132208 -4397971638581 12526751 -4397972633726 -12123307 4397960098870 8105 -4397970942803 -4397970645489 4397970645490 -4397968081186 -4397959516925 4397959516924 -4397971839345 4397970851655 -4397970848746 4397970848747 9506948 -4397971664965 -4397971664971 3921922 12131235 -12131230 -4397967743056 4397958236129 -4397958236127 -3165693 2810748 -2773166 -794372 34 3567503 -3567503 3921885 8211061 -8565956 163 350 -3566990 12132950 -8565462 8565465 -8565978 4397968074161 -3567153 3567153 12132150 -4397960501527 4397950025856 -4397958591020 4397958591023 -4397958590860 4397950025846 -4397958591028 4397958591029 -4397950025849 -12132217 -4397971664943 4397971638536 -4397970584265 4397970610671 -4397974723294 3058352 -3058351 3058351 -3058350 4397972633681 -4397971664994 4397968098014 -4397967743064 38095 3127549 2153533 -3567464 802909 354732 -350 -3567186 4397950025840 4397958590858 -4397958590858 -4397958590512 -3567541 4397971638569 -4397968071546 4397960106968 -12123306 -8106 -12123315 -8099 4397970942803 -4397971614224 4397961138562 4397971664984 -4397968098016 -2133 -4397971877487 4397970889797 -4397970889749 4397970886840 4397961363681 9485065 -4397971664955 4397972633715 -4397962108596 4397962158050 9506921 4397959533744 38096 3127548 -3127548 3566988 -3567500 3567500 8565443 354895 164 -3567151 12132947 4397968074160 -4397968074160 4397969066527 -3567152 3567152 12132148 -3566988 12132152 4397950025841 -4397958590510 4397958590512 -4397959532773 -3567037 51 4397971638534 3058354 -3058353 -3058352 4397975692030 2772652 1597279 -164 -349 -3567187 -4397968071033 4397958590852 10475675 -2051078 8563864 -8095 3567028 8106 -968732 -4397961138562 4397970645494 -4397967724104 4397967724105 987691 -987690 4397970886888 -4397970886840 4397970886841 -4397970870625 4397970870583 4397967743048 38097 3127547 -2773093 4397958590507 -4397961363673 -794373 -3567499 3566986 -3566985 3921880 165 8565791 -8565447 8565809 -8565809 8565810 4397968074324 -9483306 -4397968711796 -3921881 -3567150 3567498 12132149 4397958590853 -4397958590516 4397968097439 53 -6625342 4112623 -1054267 -3058355 3058356 -3058354 4397961363673 -4397961363674 619119 -354730 -165 3567188 348 2051084 -4397950026648 -12123305 12123314 7 8107 -8108 10440501 -557167 9506934 -4397961138552 4397970645484 4397968098026 -4397967743076 -4397967720822 987692 -4397961401824 -4397970870623 4397970870624 10475662 9506903 42 -12131231 4397962158048 -4397962158064 4397972633726 -4397972633713 4397962158062 -4397959533928 4397969974069 3566966 4397968098007 -4397967743057 -2773092 41 794332 2773164 -3567496 3567496 -3921878 3566983 166 -3567148 12132938 -8565794 8565808 -8565808 -8565461 4397950025043 8565978 -8211083 4397971641307 -3567149 4397972633674 -12132143 8565164 8565014 56 -4397975692033 4397970610673 -4397962158011 -3058358 3058303 -4397962158010 -57 -4397974723296 11 -4397961363671 -3567189 -347 8564994 4397968071380 -4397968071380 4397969066525 -4397962158057 12131411 8101 12123307 -12131416 -1682810 1036996 370640 -4397972625621 1594163 4397971031458 -4397960467134 4397960467136 -4397961138577 4397970645511 -4397961138551 4397970645483 -4397971848107 183125 -4397971643117 794386 4397970870622 -9506903 4397962158060 -49464 49467 -4397962158063 4397962158063 -4397962158051 12131040 4397960502673 -4397970942811 4397969974065 38098 3127546 -2773091 43 794331 2773163 -3567494 3921876 -3566980 3567493 -346 -167 -8565793 8565807 -8565807 -3921876 167 3567494 -3566981 12132145 4397969066524 -4397971664934 -3058361 4397975692033 -4397971579410 -4397962158009 -3058360 -4397971664937 -59 -4397961363670 -3567190 8564993 8565013 4397962158056 -12123312 12131409 4397975704844 -4397962149953 -4397970249253 4397970062727 -11111734 4397970628657 -4397970848742 9485064 12131231 -3127544 2772650 440 354457 794330 -794330 3921874 168 -3567146 3567491 -345 8565806 4397960500717 -4397950025043 -3567491 3921873 8211083 -3566978 3567146 4397968074156 12132142 4397968071378 60 4397971664932 4397970610672 3058363 4397962158006 -4397965216369 4397972633669 3058300 4397971664993 38099 3127545 -2773090 4397962158043 -4397961363669 802905 3567191 8564992 -8565008 8565009 8565012 -12123302 4397960098865 -12123311 4397962149947 8099 4397972625619 -4397960502310 -4397961112958 645814 4397960467145 -4397971217985 4397970249253 -11111731 4397970628654 -4397971839341 4397961363677 -4397971643129 -4397971643131 968720 -4397968097999 -3566968 -4397967743049 -3921933 -3 -3127545 2772649 73 -2773162 -794376 3567489 -3567489 3921871 -3921870 3566975 169 344 -3566975 12132935 -4397950025044 -8565806 -3566976 4397971641300 -4397968074155 8564991 -12132136 12132140 4397968071377 -4397968071377 4397969066522 -4397971664929 -63 3058366 -3058365 -3058364 3058364 4397962157999 38100 3127544 -2773089 794374 -344 354726 3567192 -3567192 8565007 -8565011 4397958590848 -8104 3079225 1407634 10715675 1594161 -1594161 4397972625618 -4397971614243 1019501 2547467 -12250348 119117 -4397971784113 4397971767273 4397961401773 -4397971839340 -4397961363677 4397970851650 -42 12131246 4397959533737 49 3165642 -2773088 2773161 -2773161 -794377 50 3567487 -3567487 3921869 170 343 -3567486 3566973 -12132929 3567486 -343 -3567144 -12132948 -3566973 12132137 4397968071376 65 4397971664927 3058368 -3058367 -3058366 4397962157997 794375 802904 354725 3567193 -3567193 8565006 -8565010 9480525 -9480524 -12123301 4397960098864 8111 12123309 3079226 1407633 4397962149949 -4397960555789 4397960555791 -4397962149955 4397969974071 -4397970619904 -25618 4397959511509 -4397970623242 4397970628656 -3165642 4397971877438 -4397971839339 4397970851649 -4397970848740 4397970848741 4397971664969 -34 3921933 4397967743050 4397949977354 -4397962158049 -4397968098005 3165643 2772647 -2773160 -794378 3567484 -3567484 3921866 171 -3567142 12132927 -3566971 12132931 4397958590847 -4397958590847 342 3567142 8565005 -8565009 4397958590849 9480523 -9480521 -4397971664924 -3058371 -1054252 -3058370 3058370 -3058369 4397971664978 3127543 -3127542 794376 802903 354724 -342 4397958590846 4397969066520 3567194 -4397960501511 -4397971638574 4397972633714 -12123300 4397960098863 -8105 4397972625617 -4397961138580 4397970645512 -4397971642740 1019502 2547466 4397970851648 -4397970848739 4397970848740 4397971665015 -3921917 -4397970908747 38101 3127542 -3127543 2772646 -3567465 55 3567482 -3567482 3921864 -3921863 172 341 12132928 4397968074152 -4397962157987 -354382 3566969 -172 -8564992 8565004 4397958590851 9480518 26406 -4397971664922 1054250 3058373 -3058372 3058371 -4397971664980 -4 -3127541 -2153973 -2773159 802902 -341 -3567195 4397969066519 -4397950025845 -4397958591025 -12123299 4397960098862 -4397961138574 4397961138576 -4397970645484 4397971648155 -4397968075772 4397968075773 -4397971877438 -4397970848738 4397970848739 4397971665000 4397967724289 -4397967724287 -4397967724290 4397959511695 -4397967721009 12117475 4397960481312 -12491813 4397960106965 12488268 -12488264 12488527 -171 3481 3451 -12495260 12488809 -448 -253 7418 -6721 -12488838 2051078 10437110 -4397968673237 4397968673313 263 -10437449 10437278 -219 -12488140 12495559 -12495549 12491812 3470 -3451 -2999 -7462 56493 -10486745 -2051128 18083 2033001 -4397958236130 4397958236130 -4397958236129 -2506173 2506171 8209316 -8209315 -4397971031441 10528984 -8210243 8210394 4397960129903 -4397968340297 4397968341384 371310 -4397971576455 545015 -835122 71 3159760 276973 4397957954089 -4397957954089 4397957954088 10475661 -4397971217969 4397960742307 -4397960555779 -4653012 4397965208791 -4397965143636 2985588 -3058321 3058333 -11 12132977 -12132966 -4397965143639 4397965143641 -4397950025870 -15117768 4397965143638 -72734 3058322 -2985522 2985522 4397962158051 -4397965143640 4397965143640 -51745019 51672272 15201027 -15201011 15190490 4397960501544 -10475661 15128295 4397950015345 10475660 -4397960491001 -15201033 4397962158052 -2985572 4397974654222 -9510599 4397960106954 -4397963092532 4397963092532 12131405 -12131406 2985577 8098 1053138 170344 -170344 170346 67485 -216203 148717 4397960934562 -4397960934562 10475664 -4397971404284 4397958877532 -4397947975554 4397950026642 -4397961104908 4397961104908 -4397961104907 362601 -4751945 3344299 1407643 10529141 4397960130990 -4397972254305 4397972625615 -4397961100790 545017 -759053 4397972254301 371314 -4397971866541 -4011734 4397965402607 -4397962149948 -15376052 4397975507039 -4397972254301 -4397975861925 4397975861925 -4397965386268 3236320 -4397975414237 3159936 -4397971576457 -4209103 3907603 4397961402282 -4397960742302 4397960742302 -4397960555776 -186527 4397960742303 -4397960742305 -4397961402282 -4397961402281 4397961402281 -4397950026819 -11337574 4397961364392 -4397961364392 -793653 793653 -793655 -4397962158044 12117467 -12117467 4397962158046 -4397962158046 -4397971840056 4397961364394 -4397961364394 -4397961364395 -3779119 2993559 785560 -3945504 3945504 -3945501 4397963258805 -4397947975627 -12123233 785557 3593440 4397968246615 -4397957770952 507 4397957770445 -4397957770801 -151 151 4397968246464 4397965309895 -4397962149952 4397962149953 -4397972633705 4397962158044 -2985464 2985465 1690900 -1594158 12123306 4397961100791 -4397960467138 -4397961138581 2051090 -4397961138560 -4004954 2993565 4397962149948 -4397965143611 15117184 -15190933 4397963166270 -4397963166270 3067411 -3067413 3852965 -3945503 3159942 -4379507 785561 3593950 4397957770439 -4397962149949 4397962149950 -4397962149950 4379510 -3593952 -785558 4378998 361 -361 4397957770797 -4397965143606 -8 15118546 -7745368 -512 -7372666 15118550 -7745387 7745390 -7745902 4397967254097 -4397967254097 -4397957770437 -4379510 4397957770949 -4397961364389 4397957770948 -4397957770797 -7372809 -7745390 4397967253736 -4397967254248 -4397968246103 -4397962149947 785558 4397961364389 7373178 7744456 -7744968 15117638 17 -15117656 15117655 -7744478 7744482 -7744482 -7372816 4397975254036 -4397975253456 7372236 4397957770796 -4397965143613 4397965143613 4397957770436 -4397957770949 7373170 -7373177 7372665 7744968 -15117633 15117637 -15117654 15117658 -15117658 4397975254035 -4397975254035 7373176 -7373176 -7373068 7372556 152 4397957770795 -4397975619279 4397965143612 -4378998 -4397957770796 -7372810 7373169 -7372663 15117631 -15117652 15117653 -15117653 4397960136377 -4397967880859 -7373175 7373175 -7372555 7372707 
Potential of Offsets elements: 1293.59 1544.59 158.586 28.5862 528.586 251.586 284.586 28.5862 46.5862 28.5862 470.586 28.5862 28.5862 28.5862 28.5862 28.5862 28.5862 28.5862 29.5862 28.5862 28.5862 1552.59 28.5862 28.5862 28.5862 28.5862 28.5862 28.5862 28.5862 28.5862 28.5862 42.5862 168.586 28.5862 28.5862 28.5862 28.5862 28.5862 28.5862 28.5862 28.5862 28.5862 28.5862 28.5862 28.5862 28.5862 28.5862 28.5862 28.5862 28.5862 28.5862 28.5862 35.5862 28.5862 28.5862 28.5862 28.5862 28.5862 28.5862 28.5862 28.5862 28.5862 28.5862 28.5862 28.5862 28.5862 28.5862 28.5862 51.5862 28.5862 28.5862 28.5862 28.5862 28.5862 28.5862 28.5862 28.5862 28.5862 80.5862 146.586 442.586 130.586 134.586 54.5862 76.5862 52.5862 70.5862 432.586 347.586 28.5862 28.5862 28.5862 52.5862 124.586 28.5862 28.5862 28.5862 28.5862 28.5862 279.586 28.5862 28.5862 28.5862 28.5862 214.586 148.586 142.586 28.5862 28.5862 28.5862 28.5862 28.5862 28.5862 28.5862 28.5862 28.5862 28.5862 28.5862 28.5862 28.5862 28.5862 28.5862 74.5862 28.5862 28.5862 28.5862 28.5862 28.5862 28.5862 28.5862 28.5862 28.5862 28.5862 185.586 28.5862 28.5862 28.5862 28.5862 28.5862 28.5862 527.586 28.5862 28.5862 28.5862 76.5862 28.5862 28.5862 28.5862 28.5862 28.5862 28.5862 28.5862 28.5862 28.5862 28.5862 28.5862 28.5862 28.5862 28.5862 28.5862 28.5862 28.5862 28.5862 28.5862 30.5862 56.5862 28.5862 28.5862 28.5862 28.5862 28.5862 28.5862 48.5862 28.5862 28.5862 28.5862 28.5862 28.5862 28.5862 28.5862 28.5862 127.586 49.5862 114.586 662.586 28.5862 28.5862 63.5862 28.5862 28.5862 28.5862 28.5862 28.5862 28.5862 54.5862 105.586 28.5862 28.5862 28.5862 28.5862 28.5862 28.5862 28.5862 28.5862 28.5862 28.5862 28.5862 82.5862 28.5862 28.5862 28.5862 28.5862 28.5862 28.5862 28.5862 28.5862 28.5862 28.5862 28.5862 28.5862 28.5862 448.586 28.5862 28.5862 28.5862 28.5862 28.5862 28.5862 28.5862 28.5862 28.5862 28.5862 28.5862 28.5862 28.5862 28.5862 38.5862 28.5862 28.5862 28.5862 28.5862 28.5862 28.5862 28.5862 28.5862 28.5862 28.5862 28.5862 28.5862 28.5862 28.5862 28.5862 28.5862 28.5862 28.5862 28.5862 28.5862 28.5862 28.5862 28.5862 28.5862 28.5862 28.5862 28.5862 28.5862 28.5862 28.5862 28.5862 28.5862 28.5862 1734.1 28.5862 28.5862 28.5862 28.5862 28.5862 28.5862 28.5862 28.5862 28.5862 28.5862 28.5862 28.5862 28.5862 28.5862 28.5862 28.5862 28.5862 28.5862 28.5862 28.5862 28.5862 28.5862 28.5862 28.5862 28.5862 28.5862 28.5862 28.5862 28.5862 28.5862 28.5862 28.5862 28.5862 28.5862 28.5862 28.5862 28.5862 28.5862 28.5862 31.5862 28.5862 28.5862 28.5862 28.5862 28.5862 28.5862 28.5862 28.5862 28.5862 28.5862 28.5862 28.5862 28.5862 28.5862 28.5862 28.5862 28.5862 28.5862 28.5862 28.5862 28.5862 28.5862 28.5862 28.5862 28.5862 28.5862 28.5862 28.5862 28.5862 28.5862 28.5862 28.5862 28.5862 28.5862 28.5862 28.5862 28.5862 28.5862 28.5862 28.5862 28.5862 28.5862 28.5862 28.5862 28.5862 28.5862 28.5862 28.5862 28.5862 28.5862 28.5862 28.5862 28.5862 28.5862 28.5862 28.5862 28.5862 28.5862 28.5862 28.5862 28.5862 28.5862 28.5862 28.5862 28.5862 28.5862 28.5862 28.5862 28.5862 28.5862 28.5862 28.5862 28.5862 28.5862 178.586 28.5862 28.5862 28.5862 108.586 28.5862 28.5862 28.5862 28.5862 28.5862 28.5862 28.5862 28.5862 28.5862 28.5862 325.586 28.5862 28.5862 28.5862 28.5862 28.5862 28.5862 28.5862 28.5862 28.5862 28.5862 28.5862 28.5862 28.5862 28.5862 28.5862 28.5862 28.5862 28.5862 28.5862 28.5862 28.5862 28.5862 28.5862 28.5862 28.5862 28.5862 28.5862 28.5862 28.5862 28.5862 34.5862 28.5862 28.5862 28.5862 28.5862 28.5862 28.5862 28.5862 28.5862 28.5862 28.5862 28.5862 28.5862 28.5862 28.5862 28.5862 28.5862 28.5862 28.5862 28.5862 28.5862 28.5862 28.5862 28.5862 28.5862 28.5862 28.5862 28.5862 28.5862 28.5862 28.5862 28.5862 28.5862 28.5862 28.5862 28.5862 28.5862 28.5862 28.5862 28.5862 28.5862 28.5862 28.5862 28.5862 28.5862 28.5862 28.5862 28.5862 28.5862 28.5862 28.5862 28.5862 28.5862 28.5862 28.5862 28.5862 28.5862 28.5862 28.5862 28.5862 28.5862 28.5862 28.5862 28.5862 28.5862 28.5862 28.5862 28.5862 28.5862 28.5862 28.5862 28.5862 28.5862 28.5862 28.5862 28.5862 54.5862 28.5862 28.5862 28.5862 28.5862 28.5862 28.5862 28.5862 28.5862 28.5862 28.5862 28.5862 28.5862 28.5862 28.5862 28.5862 28.5862 28.5862 28.5862 28.5862 28.5862 28.5862 28.5862 28.5862 28.5862 28.5862 28.5862 28.5862 28.5862 28.5862 28.5862 28.5862 28.5862 28.5862 28.5862 28.5862 28.5862 28.5862 28.5862 28.5862 28.5862 28.5862 28.5862 28.5862 28.5862 28.5862 28.5862 28.5862 28.5862 28.5862 28.5862 28.5862 28.5862 28.5862 28.5862 28.5862 28.5862 28.5862 28.5862 28.5862 28.5862 28.5862 28.5862 28.5862 28.5862 28.5862 28.5862 28.5862 28.5862 28.5862 28.5862 28.5862 28.5862 28.5862 28.5862 28.5862 29.5862 28.5862 28.5862 28.5862 28.5862 28.5862 28.5862 28.5862 28.5862 28.5862 28.5862 28.5862 32.5862 28.5862 28.5862 28.5862 28.5862 28.5862 28.5862 28.5862 28.5862 28.5862 28.5862 28.5862 28.5862 28.5862 28.5862 224.586 28.5862 28.5862 28.5862 28.5862 28.5862 28.5862 28.5862 28.5862 28.5862 28.5862 28.5862 28.5862 28.5862 28.5862 28.5862 28.5862 28.5862 28.5862 28.5862 28.5862 28.5862 28.5862 28.5862 28.5862 28.5862 28.5862 28.5862 28.5862 28.5862 28.5862 28.5862 28.5862 28.5862 28.5862 28.5862 28.5862 28.5862 28.5862 28.5862 28.5862 28.5862 28.5862 28.5862 28.5862 28.5862 28.5862 28.5862 28.5862 28.5862 28.5862 28.5862 28.5862 28.5862 28.5862 83.5862 43.5862 28.5862 28.5862 28.5862 28.5862 28.5862 28.5862 28.5862 28.5862 28.5862 28.5862 28.5862 28.5862 28.5862 28.5862 28.5862 28.5862 28.5862 28.5862 28.5862 28.5862 28.5862 28.5862 28.5862 28.5862 28.5862 28.5862 28.5862 28.5862 28.5862 28.5862 28.5862 28.5862 28.5862 28.5862 28.5862 28.5862 28.5862 28.5862 28.5862 28.5862 28.5862 28.5862 28.5862 28.5862 28.5862 28.5862 28.5862 28.5862 28.5862 28.5862 28.5862 28.5862 28.5862 28.5862 28.5862 28.5862 28.5862 28.5862 28.5862 28.5862 28.5862 28.5862 28.5862 28.5862 28.5862 28.5862 28.5862 28.5862 28.5862 28.5862 28.5862 28.5862 28.5862 28.5862 28.5862 28.5862 28.5862 28.5862 28.5862 28.5862 28.5862 28.5862 28.5862 28.5862 28.5862 28.5862 28.5862 28.5862 28.5862 28.5862 28.5862 28.5862 28.5862 28.5862 28.5862 28.5862 28.5862 28.5862 28.5862 28.5862 28.5862 28.5862 33.5862 28.5862 28.5862 28.5862 28.5862 28.5862 28.5862 28.5862 28.5862 28.5862 28.5862 28.5862 28.5862 28.5862 28.5862 28.5862 28.5862 28.5862 28.5862 28.5862 28.5862 28.5862 28.5862 28.5862 28.5862 28.5862 28.5862 28.5862 28.5862 28.5862 28.5862 28.5862 28.5862 28.5862 28.5862 28.5862 28.5862 28.5862 28.5862 28.5862 28.5862 28.5862 28.5862 28.5862 28.5862 28.5862 28.5862 28.5862 28.5862 28.5862 28.5862 28.5862 28.5862 28.5862 28.5862 28.5862 28.5862 28.5862 28.5862 28.5862 28.5862 28.5862 28.5862 28.5862 28.5862 28.5862 28.5862 28.5862 500.215 28.5862 28.5862 28.5862 28.5862 28.5862 28.5862 28.5862 28.5862 28.5862 28.5862 28.5862 28.5862 28.5862 28.5862 28.5862 28.5862 29.5862 28.5862 28.5862 28.5862 28.5862 28.5862 28.5862 28.5862 28.5862 28.5862 28.5862 28.5862 28.5862 28.5862 28.5862 28.5862 28.5862 28.5862 28.5862 28.5862 28.5862 28.5862 28.5862 28.5862 28.5862 28.5862 28.5862 28.5862 28.5862 28.5862 28.5862 28.5862 28.5862 28.5862 28.5862 28.5862 28.5862 28.5862 28.5862 28.5862 28.5862 28.5862 28.5862 28.5862 28.5862 604.586 28.5862 28.5862 28.5862 28.5862 28.5862 28.5862 28.5862 28.5862 28.5862 28.5862 28.5862 28.5862 28.5862 28.5862 28.5862 28.5862 28.5862 28.5862 28.5862 28.5862 28.5862 28.5862 28.5862 28.5862 28.5862 28.5862 28.5862 28.5862 28.5862 28.5862 28.5862 28.5862 28.5862 28.5862 28.5862 28.5862 28.5862 28.5862 28.5862 28.5862 28.5862 28.5862 28.5862 28.5862 28.5862 28.5862 28.5862 28.5862 28.5862 28.5862 28.5862 28.5862 28.5862 28.5862 28.5862 28.5862 28.5862 28.5862 28.5862 28.5862 28.5862 28.5862 28.5862 28.5862 28.5862 28.5862 28.5862 28.5862 28.5862 28.5862 28.5862 28.5862 28.5862 28.5862 28.5862 28.5862 28.5862 28.5862 28.5862 28.5862 28.5862 28.5862 28.5862 28.5862 28.5862 28.5862 28.5862 28.5862 28.5862 28.5862 28.5862 28.5862 28.5862 28.5862 28.5862 28.5862 28.5862 28.5862 28.5862 28.5862 28.5862 28.5862 28.5862 28.5862 28.5862 28.5862 28.5862 35.5862 28.5862 28.5862 28.5862 28.5862 28.5862 28.5862 28.5862 28.5862 28.5862 28.5862 28.5862 28.5862 28.5862 28.5862 28.5862 28.5862 28.5862 28.5862 28.5862 28.5862 28.5862 28.5862 28.5862 28.5862 28.5862 28.5862 28.5862 28.5862 28.5862 28.5862 28.5862 28.5862 28.5862 28.5862 28.5862 28.5862 28.5862 28.5862 28.5862 28.5862 28.5862 28.5862 1435.59 28.5862 28.5862 28.5862 28.5862 28.5862 28.5862 28.5862 28.5862 28.5862 28.5862 28.5862 28.5862 28.5862 28.5862 28.5862 28.5862 28.5862 28.5862 28.5862 28.5862 28.5862 28.5862 28.5862 28.5862 28.5862 28.5862 44.5862 28.5862 28.5862 28.5862 28.5862 28.5862 28.5862 28.5862 28.5862 28.5862 28.5862 28.5862 28.5862 28.5862 28.5862 28.5862 28.5862 28.5862 28.5862 28.5862 28.5862 28.5862 28.5862 28.5862 28.5862 28.5862 28.5862 28.5862 28.5862 28.5862 28.5862 28.5862 28.5862 28.5862 28.5862 37.5862 28.5862 28.5862 44.5862 28.5862 28.5862 28.5862 28.5862 28.5862 108.586 28.5862 28.5862 28.5862 28.5862 28.5862 28.5862 28.5862 28.5862 28.5862 28.5862 28.5862 28.5862 28.5862 28.5862 28.5862 28.5862 28.5862 28.5862 28.5862 28.5862 28.5862 28.5862 28.5862 28.5862 28.5862 28.5862 28.5862 28.5862 28.5862 28.5862 28.5862 28.5862 28.5862 28.5862 28.5862 28.5862 28.5862 28.5862 28.5862 28.5862 28.5862 28.5862 28.5862 28.5862 28.5862 28.5862 28.5862 28.5862 28.5862 28.5862 28.5862 28.5862 28.5862 36.5862 28.5862 28.5862 28.5862 28.5862 28.5862 28.5862 28.5862 28.5862 28.5862 28.5862 28.5862 28.5862 28.5862 28.5862 28.5862 28.5862 28.5862 28.5862 28.5862 28.5862 28.5862 28.5862 28.5862 28.5862 28.5862 28.5862 28.5862 28.5862 28.5862 28.5862 28.5862 28.5862 28.5862 28.5862 28.5862 28.5862 28.5862 28.5862 28.5862 28.5862 28.5862 28.5862 28.5862 28.5862 28.5862 28.5862 28.5862 28.5862 28.5862 28.5862 28.5862 28.5862 28.5862 28.5862 28.5862 28.5862 28.5862 28.5862 28.5862 28.5862 28.5862 28.5862 28.5862 28.5862 28.5862 32.5862 28.5862 28.5862 28.5862 28.5862 28.5862 28.5862 28.5862 28.5862 28.5862 28.5862 28.5862 28.5862 28.5862 28.5862 28.5862 28.5862 28.5862 28.5862 28.5862 28.5862 28.5862 28.5862 28.5862 678.586 28.5862 28.5862 28.5862 28.5862 28.5862 28.5862 28.5862 28.5862 28.5862 28.5862 28.5862 28.5862 28.5862 28.5862 28.5862 28.5862 28.5862 28.5862 28.5862 28.5862 28.5862 28.5862 28.5862 28.5862 28.5862 28.5862 28.5862 28.5862 28.5862 28.5862 28.5862 28.5862 28.5862 28.5862 28.5862 28.5862 28.5862 28.5862 28.5862 28.5862 28.5862 28.5862 28.5862 28.5862 28.5862 28.5862 28.5862 28.5862 28.5862 28.5862 28.5862 28.5862 28.5862 28.5862 28.5862 28.5862 28.5862 28.5862 28.5862 28.5862 28.5862 28.5862 28.5862 28.5862 28.5862 28.5862 28.5862 28.5862 28.5862 28.5862 28.5862 28.5862 28.5862 28.5862 28.5862 28.5862 28.5862 28.5862 28.5862 28.5862 28.5862 28.5862 46.5862 28.5862 28.5862 28.5862 28.5862 28.5862 28.5862 28.5862 28.5862 28.5862 28.5862 28.5862 28.5862 28.5862 28.5862 28.5862 210.586 28.5862 28.5862 28.5862 28.5862 28.5862 28.5862 28.5862 28.5862 28.5862 28.5862 28.5862 28.5862 28.5862 28.5862 28.5862 28.5862 28.5862 28.5862 28.5862 28.5862 28.5862 28.5862 28.5862 28.5862 28.5862 28.5862 28.5862 28.5862 28.5862 28.5862 28.5862 28.5862 28.5862 28.5862 28.5862 28.5862 28.5862 28.5862 28.5862 28.5862 28.5862 28.5862 28.5862 28.5862 28.5862 28.5862 28.5862 28.5862 28.5862 28.5862 28.5862 28.5862 28.5862 28.5862 28.5862 28.5862 28.5862 28.5862 28.5862 28.5862 28.5862 28.5862 28.5862 28.5862 28.5862 28.5862 28.5862 28.5862 28.5862 28.5862 28.5862 28.5862 28.5862 28.5862 28.5862 28.5862 28.5862 28.5862 28.5862 28.5862 28.5862 28.5862 28.5862 28.5862 28.5862 28.5862 28.5862 28.5862 28.5862 28.5862 28.5862 28.5862 28.5862 28.5862 28.5862 28.5862 28.5862 28.5862 28.5862 28.5862 28.5862 28.5862 28.5862 28.5862 28.5862 28.5862 28.5862 28.5862 28.5862 28.5862 28.5862 28.5862 28.5862 28.5862 28.5862 28.5862 28.5862 28.5862 28.5862 28.5862 28.5862 28.5862 28.5862 28.5862 28.5862 28.5862 28.5862 28.5862 28.5862 28.5862 28.5862 28.5862 28.5862 28.5862 28.5862 28.5862 28.5862 28.5862 28.5862 28.5862 28.5862 28.5862 28.5862 28.5862 28.5862 28.5862 28.5862 28.5862 28.5862 28.5862 28.5862 28.5862 28.5862 28.5862 28.5862 28.5862 28.5862 28.5862 28.5862 28.5862 28.5862 28.5862 28.5862 28.5862 28.5862 28.5862 28.5862 28.5862 28.5862 28.5862 28.5862 432.586 28.5862 28.5862 28.5862 28.5862 28.5862 28.5862 28.5862 28.5862 28.5862 28.5862 28.5862 28.5862 28.5862 28.5862 28.5862 28.5862 28.5862 28.5862 28.5862 28.5862 28.5862 28.5862 28.5862 28.5862 28.5862 28.5862 28.5862 28.5862 639.586 28.5862 28.5862 28.5862 28.5862 28.5862 28.5862 28.5862 28.5862 28.5862 28.5862 28.5862 28.5862 28.5862 28.5862 28.5862 28.5862 28.5862 28.5862 28.5862 28.5862 28.5862 28.5862 28.5862 28.5862 28.5862 28.5862 28.5862 28.5862 28.5862 28.5862 28.5862 28.5862 28.5862 28.5862 28.5862 28.5862 28.5862 28.5862 28.5862 28.5862 28.5862 28.5862 28.5862 28.5862 28.5862 28.5862 28.5862 28.5862 
rewards of Offsets elements: 1265 1516 130 0 500 223 256 0 18 0 442 0 0 0 0 0 0 0 1 0 0 1524 0 0 0 0 0 0 0 0 0 14 140 0 0 0 0 0 0 0 0 0 0 0 0 0 0 0 0 0 0 0 7 0 0 0 0 0 0 0 0 0 0 0 0 0 0 0 23 0 0 0 0 0 0 0 0 0 52 118 414 102 106 26 48 24 42 404 319 0 0 0 24 96 0 0 0 0 0 251 0 0 0 0 186 120 114 0 0 0 0 0 0 0 0 0 0 0 0 0 0 0 46 0 0 0 0 0 0 0 0 0 0 157 0 0 0 0 0 0 499 0 0 0 48 0 0 0 0 0 0 0 0 0 0 0 0 0 0 0 0 0 0 0 2 28 0 0 0 0 0 0 20 0 0 0 0 0 0 0 0 99 21 86 634 0 0 35 0 0 0 0 0 0 26 77 0 0 0 0 0 0 0 0 0 0 0 54 0 0 0 0 0 0 0 0 0 0 0 0 0 420 0 0 0 0 0 0 0 0 0 0 0 0 0 0 10 0 0 0 0 0 0 0 0 0 0 0 0 0 0 0 0 0 0 0 0 0 0 0 0 0 0 0 0 0 0 0 0 0 1734 0 0 0 0 0 0 0 0 0 0 0 0 0 0 0 0 0 0 0 0 0 0 0 0 0 0 0 0 0 0 0 0 0 0 0 0 0 0 0 3 0 0 0 0 0 0 0 0 0 0 0 0 0 0 0 0 0 0 0 0 0 0 0 0 0 0 0 0 0 0 0 0 0 0 0 0 0 0 0 0 0 0 0 0 0 0 0 0 0 0 0 0 0 0 0 0 0 0 0 0 0 0 0 0 0 0 0 0 0 0 0 0 0 0 150 0 0 0 80 0 0 0 0 0 0 0 0 0 0 297 0 0 0 0 0 0 0 0 0 0 0 0 0 0 0 0 0 0 0 0 0 0 0 0 0 0 0 0 0 0 6 0 0 0 0 0 0 0 0 0 0 0 0 0 0 0 0 0 0 0 0 0 0 0 0 0 0 0 0 0 0 0 0 0 0 0 0 0 0 0 0 0 0 0 0 0 0 0 0 0 0 0 0 0 0 0 0 0 0 0 0 0 0 0 0 0 0 0 0 0 0 0 0 0 0 0 26 0 0 0 0 0 0 0 0 0 0 0 0 0 0 0 0 0 0 0 0 0 0 0 0 0 0 0 0 0 0 0 0 0 0 0 0 0 0 0 0 0 0 0 0 0 0 0 0 0 0 0 0 0 0 0 0 0 0 0 0 0 0 0 0 0 0 0 0 0 0 0 0 0 0 0 1 0 0 0 0 0 0 0 0 0 0 0 4 0 0 0 0 0 0 0 0 0 0 0 0 0 0 196 0 0 0 0 0 0 0 0 0 0 0 0 0 0 0 0 0 0 0 0 0 0 0 0 0 0 0 0 0 0 0 0 0 0 0 0 0 0 0 0 0 0 0 0 0 0 0 0 0 0 0 0 0 0 55 15 0 0 0 0 0 0 0 0 0 0 0 0 0 0 0 0 0 0 0 0 0 0 0 0 0 0 0 0 0 0 0 0 0 0 0 0 0 0 0 0 0 0 0 0 0 0 0 0 0 0 0 0 0 0 0 0 0 0 0 0 0 0 0 0 0 0 0 0 0 0 0 0 0 0 0 0 0 0 0 0 0 0 0 0 0 0 0 0 0 0 0 0 0 0 0 0 0 0 0 0 0 0 5 0 0 0 0 0 0 0 0 0 0 0 0 0 0 0 0 0 0 0 0 0 0 0 0 0 0 0 0 0 0 0 0 0 0 0 0 0 0 0 0 0 0 0 0 0 0 0 0 0 0 0 0 0 0 0 0 0 0 0 0 0 0 0 0 0 0 0 499 0 0 0 0 0 0 0 0 0 0 0 0 0 0 0 0 1 0 0 0 0 0 0 0 0 0 0 0 0 0 0 0 0 0 0 0 0 0 0 0 0 0 0 0 0 0 0 0 0 0 0 0 0 0 0 0 0 0 0 0 0 576 0 0 0 0 0 0 0 0 0 0 0 0 0 0 0 0 0 0 0 0 0 0 0 0 0 0 0 0 0 0 0 0 0 0 0 0 0 0 0 0 0 0 0 0 0 0 0 0 0 0 0 0 0 0 0 0 0 0 0 0 0 0 0 0 0 0 0 0 0 0 0 0 0 0 0 0 0 0 0 0 0 0 0 0 0 0 0 0 0 0 0 0 0 0 0 0 0 0 0 0 0 0 0 0 0 0 0 7 0 0 0 0 0 0 0 0 0 0 0 0 0 0 0 0 0 0 0 0 0 0 0 0 0 0 0 0 0 0 0 0 0 0 0 0 0 0 0 0 0 0 1407 0 0 0 0 0 0 0 0 0 0 0 0 0 0 0 0 0 0 0 0 0 0 0 0 0 0 16 0 0 0 0 0 0 0 0 0 0 0 0 0 0 0 0 0 0 0 0 0 0 0 0 0 0 0 0 0 0 0 0 0 0 9 0 0 16 0 0 0 0 0 80 0 0 0 0 0 0 0 0 0 0 0 0 0 0 0 0 0 0 0 0 0 0 0 0 0 0 0 0 0 0 0 0 0 0 0 0 0 0 0 0 0 0 0 0 0 0 0 0 0 0 0 0 0 8 0 0 0 0 0 0 0 0 0 0 0 0 0 0 0 0 0 0 0 0 0 0 0 0 0 0 0 0 0 0 0 0 0 0 0 0 0 0 0 0 0 0 0 0 0 0 0 0 0 0 0 0 0 0 0 0 0 0 0 0 0 0 0 0 0 4 0 0 0 0 0 0 0 0 0 0 0 0 0 0 0 0 0 0 0 0 0 0 0 650 0 0 0 0 0 0 0 0 0 0 0 0 0 0 0 0 0 0 0 0 0 0 0 0 0 0 0 0 0 0 0 0 0 0 0 0 0 0 0 0 0 0 0 0 0 0 0 0 0 0 0 0 0 0 0 0 0 0 0 0 0 0 0 0 0 0 0 0 0 0 0 0 0 0 0 0 0 0 0 0 0 0 18 0 0 0 0 0 0 0 0 0 0 0 0 0 0 0 182 0 0 0 0 0 0 0 0 0 0 0 0 0 0 0 0 0 0 0 0 0 0 0 0 0 0 0 0 0 0 0 0 0 0 0 0 0 0 0 0 0 0 0 0 0 0 0 0 0 0 0 0 0 0 0 0 0 0 0 0 0 0 0 0 0 0 0 0 0 0 0 0 0 0 0 0 0 0 0 0 0 0 0 0 0 0 0 0 0 0 0 0 0 0 0 0 0 0 0 0 0 0 0 0 0 0 0 0 0 0 0 0 0 0 0 0 0 0 0 0 0 0 0 0 0 0 0 0 0 0 0 0 0 0 0 0 0 0 0 0 0 0 0 0 0 0 0 0 0 0 0 0 0 0 0 0 0 0 0 0 0 0 0 0 0 0 0 0 0 0 0 404 0 0 0 0 0 0 0 0 0 0 0 0 0 0 0 0 0 0 0 0 0 0 0 0 0 0 0 0 611 0 0 0 0 0 0 0 0 0 0 0 0 0 0 0 0 0 0 0 0 0 0 0 0 0 0 0 0 0 0 0 0 0 0 0 0 0 0 0 0 0 0 0 0 0 0 0 0 Printing Sanity3
offset_index value1614
offset list size1614
reward size1614
potential size1614
-----------------------------------------------------------------------------------------------------------------------------------------------------------------------------------------------------

DRAM Statistics
 CHANNEL 0
 RQ ROW_BUFFER_HIT:     242768  ROW_BUFFER_MISS:     886569
 DBUS_CONGESTED:        477
 WQ ROW_BUFFER_HIT:     104575  ROW_BUFFER_MISS:     337322  FULL:          0

 AVG_CONGESTED_CYCLE: 4
 All warmup complete: 2
Channel 0 Bank busy for read cycles: 0
Channel 0 Bank busy for write cycles: 0
Channel 0
Rank 0
0banks busy for read cycles: 251622232
0banks busy for write cycles: 156313
1banks busy for read cycles: 47679775
1banks busy for write cycles: 22145660
2banks busy for read cycles: 22595104
2banks busy for write cycles: 8557297
3banks busy for read cycles: 6770159
3banks busy for write cycles: 4343897
4banks busy for read cycles: 3559583
4banks busy for write cycles: 2586749
5banks busy for read cycles: 913242
5banks busy for write cycles: 1602861
6banks busy for read cycles: 648368
6banks busy for write cycles: 1097965
7banks busy for read cycles: 284859
7banks busy for write cycles: 857510
8banks busy for read cycles: 921925
8banks busy for write cycles: 2470989

CPU 0 Branch Prediction Accuracy: 99.0203% MPKI: 1.6776 Average ROB Occupancy at Mispredict: 38.94
Branch types
NOT_BRANCH: 165753055 82.8765%
BRANCH_DIRECT_JUMP: 1806110 0.903055%
BRANCH_INDIRECT: 7197242 3.59862%
BRANCH_CONDITIONAL: 19602515 9.80126%
BRANCH_DIRECT_CALL: 1904339 0.952169%
BRANCH_INDIRECT_CALL: 912580 0.45629%
BRANCH_RETURN: 2823896 1.41195%
BRANCH_OTHER: 0 0%

DRAM PAGES: 1048576
Allocated PAGES: 10830
