
*** ChampSim Multicore Out-of-Order Simulator ***

Warmup Instructions: 50000000
Simulation Instructions: 200000000
Number of CPUs: 1
LLC sets: 2048
LLC ways: 16
Off-chip DRAM Size: 4096 MB Channels: 1 Width: 64-bit Data Rate: 6400 MT/s
CPU 0 runs traces/spec2k17/client_005.champsimtrace.xz
.xz
BTB has LRU replacement policy
ITLB has LRU replacement policy
DTLB has LRU replacement policy
STLB has LRU replacement policy
L1I has LRU replacement policy
L1D has LRU replacement policy
Initialize SRRIP state for L2C
Initialize DRRIP state for LLC
Offsets elements: 
Potential of Offsets elements: 
rewards of Offsets elements: 
Printing Sanity1
offset list size1092
Offsets elements: 
Potential of Offsets elements: 
rewards of Offsets elements: 0 1499 1631 26 341 920 417 195 130 0 0 0 407 649 698 41 0 30 72 2496 0 0 94 0 3 181 12 30 257 2877 24 0 0 0 10 713 0 0 0 167 0 0 4 6 28 54 17 980 0 30 0 0 9 4 0 0 15 0 8 0 4 0 126 0 103 0 3 0 0 12 0 0 1574 0 0 0 0 0 0 0 3 132 17 1 611 245 292 205 127 0 541 0 0 0 0 0 194 33 0 0 290 0 535 0 140 0 0 0 0 0 0 0 0 370 0 0 0 0 188 528 0 0 136 0 0 0 0 2 16 0 0 0 9 124 0 0 6 91 0 0 0 0 0 0 0 0 0 0 0 0 0 0 0 484 0 0 0 0 0 0 0 29 1319 0 278 881 509 872 1779 1843 6 0 0 0 0 0 0 0 0 0 0 0 0 0 0 0 12 0 181 0 0 0 0 0 0 0 0 45 0 0 0 472 0 0 0 0 0 0 0 0 0 0 0 0 0 0 0 0 0 0 0 0 0 0 0 0 0 0 0 0 0 0 0 0 0 0 0 0 0 0 0 0 0 0 0 0 0 0 0 28 0 0 4 0 0 0 0 0 0 0 0 0 0 0 698 5 67 0 0 0 0 220 0 0 0 0 0 0 0 0 0 0 0 0 0 0 0 0 0 83 0 0 0 0 0 0 0 0 0 0 0 0 0 0 0 0 0 0 0 0 0 0 0 0 0 0 13 0 0 0 0 0 0 0 352 103 0 569 0 0 898 0 0 0 0 0 0 250 0 100 0 0 34 0 0 67 0 0 0 0 0 0 0 0 0 0 0 8 0 55 14 0 0 0 0 0 0 0 0 0 0 0 0 0 0 0 0 0 0 0 0 0 0 0 0 0 0 0 0 0 0 0 0 0 0 0 0 0 0 0 0 0 0 0 0 0 0 0 0 0 0 0 0 0 0 0 0 0 0 0 0 0 0 0 0 0 0 0 0 0 0 0 0 0 0 0 0 0 0 0 0 0 0 0 0 0 402 0 44 0 0 0 0 0 0 0 1 0 0 0 0 0 0 0 0 0 0 0 0 0 0 0 0 0 0 5 296 0 0 0 0 0 0 0 1 1949 0 0 0 0 0 0 158 16 0 0 0 5 0 0 49 0 0 0 0 0 0 0 0 0 0 0 0 0 0 0 12 0 8 0 8 0 0 0 0 2 0 0 0 0 0 0 0 0 0 0 0 0 0 0 0 0 0 0 0 0 0 0 0 0 0 0 0 0 0 0 86 0 291 0 8 0 834 0 0 0 193 0 0 199 0 1134 0 156 0 680 1279 0 0 0 134 0 0 0 0 4 8 0 0 0 4 0 0 0 0 0 0 1 0 87 0 0 0 0 0 0 10 0 0 740 369 0 0 1 0 0 0 0 0 2 0 0 0 0 16 4 0 3 395 48 0 0 0 0 3 2 0 0 676 46 0 0 0 0 26 0 0 2 0 0 0 0 0 28 0 736 16 0 0 0 0 0 0 0 0 0 0 0 0 1 0 4 0 0 0 0 0 0 0 0 0 0 69 4 0 0 2 0 610 194 0 0 0 3 0 8 1 0 0 0 0 0 0 0 8 0 0 0 4 0 0 4 0 0 0 0 0 0 0 0 0 15 9 4 0 0 0 0 0 0 6 0 20 0 0 0 0 4 0 0 0 0 0 0 0 0 0 0 0 0 0 0 0 0 0 0 0 0 0 0 0 0 0 0 0 0 0 0 0 0 0 0 0 0 0 0 0 0 0 0 0 0 0 0 0 0 0 0 0 0 0 0 0 0 0 0 0 0 0 0 0 0 0 0 0 0 0 0 0 7 0 0 0 0 1 3 0 0 0 0 0 0 0 0 0 0 0 0 0 0 0 0 1 0 0 0 5 9 0 0 0 0 0 2 1 0 0 0 0 0 0 0 0 0 0 0 4 0 0 0 0 0 0 0 25 0 0 0 0 0 183 0 3 0 0 0 0 0 0 11 0 0 0 1 2 2 0 0 0 0 0 0 0 0 0 0 0 0 0 0 0 0 0 0 0 0 0 88 0 9 0 0 4 0 0 0 0 0 0 0 0 0 0 0 331 0 0 0 0 0 0 0 0 0 0 0 0 0 0 0 0 0 0 0 0 0 14 0 0 0 0 0 24 0 0 0 0 0 0 0 0 0 0 0 0 0 0 0 0 0 0 0 0 0 0 0 0 0 0 0 0 0 0 0 0 0 0 0 0 0 0 0 0 0 0 0 0 65 30 0 0 0 2 0 0 24 140 0 13 0 80 0 0 0 0 0 0 0 0 0 0 0 0 0 52 0 0 0 0 0 0 132 0 0 0 0 0 0 132 0 0 0 0 1 11 0 0 0 7 0 0 0 0 0 0 16 0 0 0 0 0 80 0 0 8 0 5 0 11 0 0 0 0 0 0 1 0 0 0 0 0 0 0 0 0 0 0 0 0 0 0 1 
Printing Sanity2
Heartbeat CPU 0 instructions: 10000002 cycles: 2760651 heartbeat IPC: 3.62233 cumulative IPC: 3.62233 (Simulation time: 0 hr 0 min 22 sec) 
