
*** ChampSim Multicore Out-of-Order Simulator ***

Warmup Instructions: 50000000
Simulation Instructions: 200000000
Number of CPUs: 1
LLC sets: 2048
LLC ways: 16
Off-chip DRAM Size: 4096 MB Channels: 1 Width: 64-bit Data Rate: 6400 MT/s
CPU 0 runs traces/spec2k17/server_036.champsimtrace.xz
.xz
BTB has LRU replacement policy
ITLB has LRU replacement policy
DTLB has LRU replacement policy
STLB has LRU replacement policy
L1I has LRU replacement policy
L1D has LRU replacement policy
Initialize SRRIP state for L2C
Initialize DRRIP state for LLC
Offsets elements: 
Potential of Offsets elements: 
rewards of Offsets elements: 
Printing Sanity1
offset list size1682
Offsets elements: 
Potential of Offsets elements: 
rewards of Offsets elements: 0 0 0 387 2352 3132 0 0 0 0 1698 2006 0 26 36 0 0 1275 0 0 1 9 0 0 4 0 551 12 70 0 0 2 0 0 94 1 0 109 28 394 4 198 0 0 8 98 0 0 16 0 0 51 0 35 21 1030 5 0 0 0 340 618 373 32 489 242 163 264 312 441 65 3 2 6 39 9 10 8 99 0 104 774 780 450 224 463 2 174 13 39 16 664 345 14 98 12 5 400 0 0 4 0 9 4 0 4 140 0 0 8 9 0 15 0 9 0 0 76 39 0 0 0 3 144 650 128 3 9 0 56 0 634 13 55 0 0 34 10 364 0 7 54 0 25 138 518 0 0 709 3 223 22 188 5 14 0 0 0 45 0 0 0 0 0 0 0 0 0 0 0 13 0 0 0 0 0 0 0 0 0 0 0 0 0 1388 1175 4 0 0 0 0 14 197 0 0 179 16 4 0 90 0 0 27 24 0 554 448 114 39 0 326 439 1 12 4 20 0 0 217 25 494 32 608 1 6 26 270 229 0 0 6 0 84 86 149 209 147 274 63 251 566 80 49 141 7 145 21 316 31 114 0 0 832 446 30 133 605 0 0 619 116 301 3 202 0 0 50 0 6 0 281 22 98 149 64 11 48 28 0 0 0 302 26 2 0 2 15 0 41 590 22 0 0 0 0 38 80 7 34 0 0 7 14 48 52 0 104 103 0 83 0 0 0 3 0 0 74 0 54 200 0 0 0 174 0 0 0 146 0 21 626 75 124 22 0 4 9 2 0 0 40 0 0 24 14 0 0 341 0 0 338 1 0 0 36 0 0 50 124 110 0 0 0 0 16 0 0 0 0 0 0 18 0 152 19 92 0 0 40 0 0 2 36 9 0 140 0 0 6 7 0 1 491 21 0 9 0 0 8 6 0 0 12 2 0 2 22 0 0 0 0 0 2 5 1 0 27 0 0 144 0 76 0 0 0 0 36 0 0 1 0 0 45 64 9 2 83 25 0 0 84 0 0 3 0 0 0 24 0 1 55 0 0 519 224 114 0 9 0 2 1 104 0 0 0 0 0 14 156 0 0 9 0 0 277 22 0 1 0 0 0 20 2 0 12 0 0 9 0 94 0 50 0 0 8 10 25 2 36 0 0 5 0 0 0 42 0 0 274 0 0 823 7 0 0 87 0 0 23 36 0 0 310 0 0 0 0 0 6 6 0 0 6 0 49 30 21 0 0 2 2 0 142 14 0 0 0 0 8 21 0 0 26 2 0 0 52 0 0 0 63 0 0 0 0 0 0 0 0 0 0 13 0 0 0 0 0 0 0 0 0 0 0 0 0 0 0 0 0 0 0 0 0 0 0 0 0 0 0 0 0 0 0 0 0 0 0 0 0 0 0 224 12 48 20 184 30 203 8 792 0 0 124 130 28 0 263 177 0 5 261 405 0 4 195 0 60 8 0 174 0 0 133 108 0 269 35 30 0 7 12 7 704 4 21 106 0 180 74 102 2 6 0 42 190 890 0 0 655 0 0 23 3 4 0 0 0 0 0 0 0 0 0 0 0 6 0 0 0 0 0 0 0 0 0 10 0 24 36 0 1 0 0 0 272 0 147 0 0 9 3 4 0 0 0 0 19 0 0 48 0 0 12 0 0 45 0 22 3 9 1 10 0 31 36 2 0 2 0 12 0 0 0 0 0 0 0 0 28 0 0 0 0 0 0 0 0 0 0 0 0 0 0 0 0 0 0 0 0 1 0 0 8 0 0 0 0 0 0 2 0 0 0 6 0 0 0 0 0 0 0 0 0 0 0 0 25 0 0 0 0 0 0 0 0 0 0 0 0 0 0 0 0 0 0 0 0 8 0 0 0 0 0 4 6 0 0 0 0 0 70 0 0 0 239 23 0 2 0 0 0 0 0 0 8 0 0 0 0 0 0 0 0 0 0 0 0 0 4 0 0 30 1 0 0 0 0 0 0 0 0 0 0 0 0 0 0 0 5 0 0 18 0 0 0 29 0 0 0 0 2 0 0 6 393 45 7 0 13 34 0 0 4 0 0 0 0 0 0 0 0 0 0 0 0 0 0 0 0 0 0 0 0 2 0 0 0 0 0 76 0 0 0 4 0 0 1 0 0 5 2 0 0 184 0 0 0 0 0 0 0 0 0 0 10 0 30 0 0 0 36 0 68 111 110 0 0 0 192 7 0 1 0 7 36 0 0 0 3 4 0 2 12 8 10 200 0 0 23 0 0 0 310 0 0 0 0 2 0 0 0 0 0 0 437 6 22 0 11 287 0 0 35 0 0 91 24 0 0 105 117 3 4 0 0 276 5 29 16 0 2 2 0 0 0 0 0 192 0 35 192 0 22 0 24 0 35 0 125 2 0 0 0 0 0 0 0 0 10 730 141 0 60 9 13 8 4 0 1 165 123 649 120 243 0 9 0 63 67 64 0 0 450 54 6 15 62 0 3 48 365 184 0 2 30 14 91 17 131 0 49 12 26 81 0 0 0 0 0 0 0 0 287 44 0 0 5 519 2 0 28 10 0 0 28 0 0 71 0 0 16 2 0 11 3 0 0 14 0 0 155 0 0 18 29 0 0 44 0 0 7 0 0 0 48 0 0 8 43 0 0 22 0 0 4 0 0 28 472 146 0 60 0 0 20 1 116 573 107 0 0 93 0 0 0 71 0 34 154 0 0 6 12 0 72 28 0 1 0 0 0 9 78 18 8 255 1 0 55 0 0 6 0 0 0 42 0 8 1 1 0 0 26 0 0 17 6 0 0 38 0 0 9 0 54 203 483 0 0 0 0 0 385 183 1 18 0 11 2 395 29 0 0 0 1 0 60 0 0 0 0 0 12 24 0 0 7 0 112 37 24 0 129 0 0 8 30 30 0 62 136 0 67 55 4 0 37 21 0 1 4 20 0 155 20 0 8 336 0 0 0 74 0 351 4 2 257 6 0 179 45 148 8 0 0 0 138 59 9 0 54 0 49 29 0 14 0 28 1 8 0 0 25 27 0 0 143 24 0 0 8 0 0 0 0 0 218 0 0 144 68 0 0 0 0 4 92 0 0 0 2 0 0 24 0 0 36 0 0 4 100 0 0 6 0 0 165 0 0 0 0 28 14 0 24 0 0 10 0 1 0 0 118 0 0 23 48 0 0 103 0 0 0 18 0 17 8 0 0 0 22 0 0 0 0 0 0 34 28 7 0 16 0 115 46 16 24 0 84 0 0 5 0 11 0 0 8 4 0 0 107 0 7 8 71 0 121 42 111 2 13 0 472 82 13 0 0 0 0 0 0 0 0 0 0 0 12 51 18 138 71 38 14 33 15 20 23 0 0 0 5 0 18 0 0 0 5 13 20 0 0 91 0 0 0 0 6 0 0 0 0 3 0 0 0 0 0 0 0 0 0 0 0 0 0 0 0 0 0 50 0 0 0 0 0 0 18 0 0 0 3 0 50 8 0 19 0 0 0 0 0 0 0 0 0 0 0 0 0 0 0 0 0 6 0 0 0 0 0 0 0 0 0 27 0 0 0 31 268 0 0 12 0 0 18 0 0 0 0 3 0 0 0 0 0 2 0 28 0 0 0 0 0 0 10 0 0 0 0 0 0 0 0 0 0 0 0 0 0 0 0 9 317 0 49 15 0 4 4 21 44 0 0 0 0 4 0 0 0 0 0 0 0 0 22 0 4 0 0 0 0 98 0 26 6 0 40 0 5 0 705 0 0 0 0 0 0 0 0 444 0 21 0 276 0 0 8 108 0 0 0 0 0 40 0 6 0 0 0 0 20 96 
Printing Sanity2
Heartbeat CPU 0 instructions: 10000000 cycles: 2746764 heartbeat IPC: 3.64065 cumulative IPC: 3.64065 (Simulation time: 0 hr 0 min 16 sec) 
Heartbeat CPU 0 instructions: 20000002 cycles: 5524042 heartbeat IPC: 3.60065 cumulative IPC: 3.62054 (Simulation time: 0 hr 0 min 33 sec) 
Heartbeat CPU 0 instructions: 30000002 cycles: 8298875 heartbeat IPC: 3.60382 cumulative IPC: 3.61495 (Simulation time: 0 hr 0 min 49 sec) 
Heartbeat CPU 0 instructions: 40000000 cycles: 11095366 heartbeat IPC: 3.57591 cumulative IPC: 3.60511 (Simulation time: 0 hr 1 min 7 sec) 
Heartbeat CPU 0 instructions: 50000001 cycles: 13869391 heartbeat IPC: 3.60487 cumulative IPC: 3.60506 (Simulation time: 0 hr 1 min 23 sec) 

Warmup complete CPU 0 instructions: 50000001 cycles: 13869391 (Simulation time: 0 hr 1 min 23 sec) 

Heartbeat CPU 0 instructions: 60000003 cycles: 31548644 heartbeat IPC: 0.565635 cumulative IPC: 0.565635 (Simulation time: 0 hr 1 min 55 sec) 
Heartbeat CPU 0 instructions: 70000000 cycles: 49087440 heartbeat IPC: 0.570164 cumulative IPC: 0.567891 (Simulation time: 0 hr 2 min 26 sec) 
Heartbeat CPU 0 instructions: 80000002 cycles: 66627501 heartbeat IPC: 0.570124 cumulative IPC: 0.568633 (Simulation time: 0 hr 2 min 57 sec) 
Heartbeat CPU 0 instructions: 90000000 cycles: 84201488 heartbeat IPC: 0.569023 cumulative IPC: 0.56873 (Simulation time: 0 hr 3 min 29 sec) 
Heartbeat CPU 0 instructions: 100000002 cycles: 101749254 heartbeat IPC: 0.569873 cumulative IPC: 0.568959 (Simulation time: 0 hr 4 min 1 sec) 
Heartbeat CPU 0 instructions: 110000000 cycles: 119293205 heartbeat IPC: 0.569997 cumulative IPC: 0.569131 (Simulation time: 0 hr 4 min 33 sec) 
Heartbeat CPU 0 instructions: 120000000 cycles: 136847282 heartbeat IPC: 0.569668 cumulative IPC: 0.569208 (Simulation time: 0 hr 5 min 4 sec) 
*** Reached end of trace for Core: 0 Repeating trace: traces/spec2k17/server_036.champsimtrace.xz
Heartbeat CPU 0 instructions: 130000003 cycles: 154617105 heartbeat IPC: 0.562752 cumulative IPC: 0.568393 (Simulation time: 0 hr 5 min 36 sec) 
Heartbeat CPU 0 instructions: 140000000 cycles: 172107402 heartbeat IPC: 0.571745 cumulative IPC: 0.568763 (Simulation time: 0 hr 6 min 7 sec) 
Heartbeat CPU 0 instructions: 150000000 cycles: 189606485 heartbeat IPC: 0.571459 cumulative IPC: 0.569032 (Simulation time: 0 hr 6 min 38 sec) 
Heartbeat CPU 0 instructions: 160000001 cycles: 208768136 heartbeat IPC: 0.521876 cumulative IPC: 0.564396 (Simulation time: 0 hr 7 min 12 sec) 
Heartbeat CPU 0 instructions: 170000000 cycles: 226306637 heartbeat IPC: 0.570174 cumulative IPC: 0.564873 (Simulation time: 0 hr 7 min 44 sec) 
Heartbeat CPU 0 instructions: 180000000 cycles: 243938780 heartbeat IPC: 0.567146 cumulative IPC: 0.565047 (Simulation time: 0 hr 8 min 16 sec) 
Heartbeat CPU 0 instructions: 190000003 cycles: 261474811 heartbeat IPC: 0.570255 cumulative IPC: 0.565416 (Simulation time: 0 hr 8 min 47 sec) 
Heartbeat CPU 0 instructions: 200000001 cycles: 279014339 heartbeat IPC: 0.570141 cumulative IPC: 0.565728 (Simulation time: 0 hr 9 min 19 sec) 
Heartbeat CPU 0 instructions: 210000003 cycles: 296580328 heartbeat IPC: 0.569282 cumulative IPC: 0.565949 (Simulation time: 0 hr 9 min 50 sec) 
Heartbeat CPU 0 instructions: 220000000 cycles: 314127967 heartbeat IPC: 0.569877 cumulative IPC: 0.566179 (Simulation time: 0 hr 10 min 22 sec) 
Heartbeat CPU 0 instructions: 230000001 cycles: 331673936 heartbeat IPC: 0.569932 cumulative IPC: 0.566386 (Simulation time: 0 hr 10 min 53 sec) 
Heartbeat CPU 0 instructions: 240000001 cycles: 349227901 heartbeat IPC: 0.569672 cumulative IPC: 0.566558 (Simulation time: 0 hr 11 min 24 sec) 
*** Reached end of trace for Core: 0 Repeating trace: traces/spec2k17/server_036.champsimtrace.xz
Heartbeat CPU 0 instructions: 250000000 cycles: 366973709 heartbeat IPC: 0.563513 cumulative IPC: 0.566405 (Simulation time: 0 hr 11 min 56 sec) 
Finished CPU 0 instructions: 200000000 cycles: 353104321 cumulative IPC: 0.566405 (Simulation time: 0 hr 11 min 56 sec) 

ChampSim completed all CPUs

Region of Interest Statistics

CPU 0 cumulative IPC: 0.566405 instructions: 200000000 cycles: 353104321
ITLB TOTAL     ACCESS:   35602574  HIT:   33754971  MISS:    1847603  HIT %:    94.8105  MISS %:    5.18952   MPKI: 9.23802
ITLB LOAD TRANSLATION ACCESS:   35602574  HIT:   33754971  MISS:    1847603  HIT %:    94.8105  MISS %:    5.18952   MPKI: 9.23802
ITLB PREFETCH  REQUESTED:          0  ISSUED:          0  USEFUL:          0  USELESS:          0
ITLB USEFUL LOAD PREFETCHES:          0 PREFETCH ISSUED TO LOWER LEVEL:          0  ACCURACY: -nan
ITLB TIMELY PREFETCHES:          0 LATE PREFETCHES: 0 DROPPED PREFETCHES: 0
ITLB PREFETCHES SAME FILL-ORIGIN LEVEL: 0 DIFFERENT FILL-ORIGIN LEVEL: 0
ITLB AVERAGE MISS LATENCY: 9.03352 cycles
ITLB RQ	ACCESS:   40686282	FORWARD:          0	MERGED:    4716671	TO_CACHE:   35969611

DTLB TOTAL     ACCESS:   40374614  HIT:   39459623  MISS:     914991  HIT %:    97.7337  MISS %:    2.26625   MPKI: 4.57496
DTLB LOAD TRANSLATION ACCESS:   40374614  HIT:   39459623  MISS:     914991  HIT %:    97.7337  MISS %:    2.26625   MPKI: 4.57496
DTLB PREFETCH  REQUESTED:          0  ISSUED:          0  USEFUL:          0  USELESS:          0
DTLB USEFUL LOAD PREFETCHES:          0 PREFETCH ISSUED TO LOWER LEVEL:          0  ACCURACY: -nan
DTLB TIMELY PREFETCHES:          0 LATE PREFETCHES: 0 DROPPED PREFETCHES: 0
DTLB PREFETCHES SAME FILL-ORIGIN LEVEL: 0 DIFFERENT FILL-ORIGIN LEVEL: 0
DTLB AVERAGE MISS LATENCY: 9.16206 cycles
DTLB RQ	ACCESS:   58660097	FORWARD:          0	MERGED:   18213387	TO_CACHE:   40446710

STLB TOTAL     ACCESS:   25283227  HIT:   25281755  MISS:       1472  HIT %:    99.9942  MISS %: 0.00582204   MPKI: 0.00736
STLB LOAD TRANSLATION ACCESS:    2762594  HIT:    2761180  MISS:       1414  HIT %:    99.9488  MISS %:  0.0511838   MPKI: 0.00707
STLB TRANSLATION FROM L1D PREFETCHER ACCESS:   22520633  HIT:   22520575  MISS:         58  HIT %:    99.9997  MISS %: 0.000257542   MPKI: 0.00029
STLB PREFETCH  REQUESTED:          0  ISSUED:          0  USEFUL:         58  USELESS:          0
STLB USEFUL LOAD PREFETCHES:         58 PREFETCH ISSUED TO LOWER LEVEL:          0  ACCURACY: inf
STLB TIMELY PREFETCHES:         58 LATE PREFETCHES: 8 DROPPED PREFETCHES: 82732
STLB PREFETCHES SAME FILL-ORIGIN LEVEL: 0 DIFFERENT FILL-ORIGIN LEVEL: 0
STLB AVERAGE MISS LATENCY: 109.211 cycles
STLB RQ	ACCESS:   31387206	FORWARD:          0	MERGED:    6021232	TO_CACHE:   25365974

STLB Hit, L1D data hit: 0
STLB Hit, L2C data hit: 0
STLB Hit, LLC data hit: 0
STLB Hit, LLC data miss: 0
STLB STLB hints to L2: 0
L1D TOTAL     ACCESS:   86996310  HIT:   86686485  MISS:     309825  HIT %:    99.6439  MISS %:   0.356136   MPKI: 1.54913
L1D LOAD      ACCESS:   30304905  HIT:   30136968  MISS:     167937  HIT %:    99.4458  MISS %:   0.554158   MPKI: 0.839685
L1D RFO       ACCESS:   28179566  HIT:   28121722  MISS:      57844  HIT %:    99.7947  MISS %:   0.205269   MPKI: 0.28922
L1D PREFETCH  ACCESS:   28511839  HIT:   28427795  MISS:      84044  HIT %:    99.7052  MISS %:   0.294769   MPKI: 0.42022
AGUS PREFETCH L1 MISS: 0
L1D PREFETCH  REQUESTED:   58932484  ISSUED:   58932354  USEFUL:      16653  USELESS:      67351
L1D USEFUL LOAD PREFETCHES:      16653 PREFETCH ISSUED TO LOWER LEVEL:      94566  ACCURACY: 17.6099
L1D TIMELY PREFETCHES:      16653 LATE PREFETCHES: 10303 DROPPED PREFETCHES: 82732
L1D PREFETCHES SAME FILL-ORIGIN LEVEL: 94566 DIFFERENT FILL-ORIGIN LEVEL: 0
L1D AVERAGE MISS LATENCY: 6.58115e+06 cycles
L1D RQ	ACCESS:   47352601	FORWARD:          0	MERGED:   16700628	TO_CACHE:   30307872
L1D WQ	ACCESS:   28475378	FORWARD:     388625	MERGED:     123153	TO_CACHE:   28352225
L1D PQ	ACCESS:   30307742	FORWARD:          0	MERGED:    1638606	TO_CACHE:   28624612

L1D UNIQUE REGIONS ACCESSED: 0
L1D REGIONS CONFLICTS: 0
L1D Cross Page Prefetch Requests: 459238
L1D Same Page Prefetch Requests: 36379779
L1D ROI Sum of L1D PQ occupancy: 363577620
L1D PREFETCHES PUSHED FROM L2C: 0
L1I TOTAL     ACCESS:   36315828  HIT:   21980398  MISS:   14335430  HIT %:    60.5257  MISS %:    39.4743   MPKI: 71.6771
L1I LOAD      ACCESS:   36315828  HIT:   21980398  MISS:   14335430  HIT %:    60.5257  MISS %:    39.4743   MPKI: 71.6771
L1I PREFETCH  REQUESTED:          0  ISSUED:          0  USEFUL:          0  USELESS:          0
L1I USEFUL LOAD PREFETCHES:          0 PREFETCH ISSUED TO LOWER LEVEL:          0  ACCURACY: -nan
L1I TIMELY PREFETCHES:          0 LATE PREFETCHES: 0 DROPPED PREFETCHES: 0
L1I PREFETCHES SAME FILL-ORIGIN LEVEL: 0 DIFFERENT FILL-ORIGIN LEVEL: 0
L1I AVERAGE MISS LATENCY: 14.135 cycles
L1I RQ	ACCESS:   60680632	FORWARD:          0	MERGED:   19994350	TO_CACHE:   40686282

BTB TOTAL     ACCESS:   25908289  HIT:   23514248  MISS:    2394041  HIT %:    90.7596  MISS %:    9.24044   MPKI: 11.9702
BTB BRANCH_DIRECT_JUMP	ACCESS:    1774351  HIT:    1739635  MISS:      34716
BTB BRANCH_INDIRECT	ACCESS:   11507664  HIT:   10680988  MISS:     826676
BTB BRANCH_CONDITIONAL	ACCESS:    4376081  HIT:    4361317  MISS:      14764
BTB BRANCH_DIRECT_CALL	ACCESS:    3347214  HIT:    3281604  MISS:      65610
BTB BRANCH_INDIRECT_CALL	ACCESS:     777882  HIT:     612337  MISS:     165545
BTB BRANCH_RETURN	ACCESS:    4125097  HIT:    2838367  MISS:    1286730
BTB BRANCH_OTHER ACCESS:          0  HIT:          0  MISS:          0

L2C TOTAL     ACCESS:   14861974  HIT:   14782687  MISS:      79287  HIT %:    99.4665  MISS %:   0.533489   MPKI: 0.396435
L2C LOAD      ACCESS:   14493055  HIT:   14461053  MISS:      32002  HIT %:    99.7792  MISS %:   0.220809   MPKI: 0.16001
L2C DATA LOAD MPKI: 0.094765
L2C INSTRUCTION LOAD MPKI: 0.065245
L2C RFO       ACCESS:      57625  HIT:      28931  MISS:      28694  HIT %:    50.2056  MISS %:    49.7944   MPKI: 0.14347
L2C PREFETCH  ACCESS:      94250  HIT:      77749  MISS:      16501  HIT %:    82.4923  MISS %:    17.5077   MPKI: 0.082505
AGUS PREFETCH L1 MISS: 0
L2C DATA PREFETCH MPKI: 0.082505
L2C INSTRUCTION PREFETCH MPKI: 0
L2C WRITEBACK ACCESS:      96436  HIT:      95172  MISS:       1264  HIT %:    98.6893  MISS %:    1.31071   MPKI: 0.00632
L2C LOAD TRANSLATION ACCESS:       1588  HIT:        802  MISS:        786  HIT %:    50.5038  MISS %:    49.4962   MPKI: 0.00393
L2C TRANSLATION FROM L1D PREFETCHER ACCESS:     119020  HIT:     118980  MISS:         40  HIT %:    99.9664  MISS %:  0.0336078   MPKI: 0.0002
L2C PREFETCH  REQUESTED:          0  ISSUED:          0  USEFUL:       1330  USELESS:      13730
L2C USEFUL LOAD PREFETCHES:       1330 PREFETCH ISSUED TO LOWER LEVEL:      16501  ACCURACY: 8.06012
L2C TIMELY PREFETCHES:       1330 LATE PREFETCHES: 0 DROPPED PREFETCHES: 0
L2C PREFETCHES SAME FILL-ORIGIN LEVEL: 0 DIFFERENT FILL-ORIGIN LEVEL: 0
L2C AVERAGE MISS LATENCY: 175.745 cycles
L2C RQ	ACCESS:   14671296	FORWARD:          0	MERGED:          0	TO_CACHE:   14671288
L2C WQ	ACCESS:      96436	FORWARD:        324	MERGED:          0	TO_CACHE:      96436
L2C PQ	ACCESS:      94566	FORWARD:          0	MERGED:          0	TO_CACHE:      94250

L2C Instructions Evicting Data 10754
L2C Translations Evicting Data 669
L2C Data Evicting Data 52989
L2C Instructions Evicting Instructions 2150
L2C Translations Evicting Instructions 130
L2C Data Evicting Instructions 10507
L2C Instructions Evicting Translations 145
L2C Translations Evicting Translations 27
L2C Data Evicting Translations 652
L2C Dense regions hint from L2: 0
PSCL5 TOTAL     ACCESS:      84196  HIT:      84196  MISS:          0  HIT %:        100  MISS %:          0   MPKI: 0
PSCL5 LOAD TRANSLATION ACCESS:       1406  HIT:       1406  MISS:          0  HIT %:        100  MISS %:          0   MPKI: 0
PSCL5 TRANSLATION FROM L1D PREFETCHER ACCESS:      82790  HIT:      82790  MISS:          0  HIT %:        100  MISS %:          0   MPKI: 0
PSCL5 PREFETCH  REQUESTED:          0  ISSUED:          0  USEFUL:          0  USELESS:          0
PSCL5 USEFUL LOAD PREFETCHES:          0 PREFETCH ISSUED TO LOWER LEVEL:          0  ACCURACY: -nan
PSCL5 TIMELY PREFETCHES:          0 LATE PREFETCHES: 0 DROPPED PREFETCHES: 0
PSCL5 PREFETCHES SAME FILL-ORIGIN LEVEL: 0 DIFFERENT FILL-ORIGIN LEVEL: 0

PSCL4 TOTAL     ACCESS:      83515  HIT:      83510  MISS:          5  HIT %:     99.994  MISS %: 0.00598695   MPKI: 2.5e-05
PSCL4 LOAD TRANSLATION ACCESS:        918  HIT:        913  MISS:          5  HIT %:    99.4553  MISS %:   0.544662   MPKI: 2.5e-05
PSCL4 TRANSLATION FROM L1D PREFETCHER ACCESS:      82597  HIT:      82597  MISS:          0  HIT %:        100  MISS %:          0   MPKI: 0
PSCL4 PREFETCH  REQUESTED:          0  ISSUED:          0  USEFUL:          0  USELESS:          0
PSCL4 USEFUL LOAD PREFETCHES:          0 PREFETCH ISSUED TO LOWER LEVEL:          0  ACCURACY: -nan
PSCL4 TIMELY PREFETCHES:          0 LATE PREFETCHES: 0 DROPPED PREFETCHES: 0
PSCL4 PREFETCHES SAME FILL-ORIGIN LEVEL: 0 DIFFERENT FILL-ORIGIN LEVEL: 0

PSCL3 TOTAL     ACCESS:      84073  HIT:      84068  MISS:          5  HIT %:    99.9941  MISS %: 0.00594721   MPKI: 2.5e-05
PSCL3 LOAD TRANSLATION ACCESS:       1307  HIT:       1302  MISS:          5  HIT %:    99.6174  MISS %:   0.382555   MPKI: 2.5e-05
PSCL3 TRANSLATION FROM L1D PREFETCHER ACCESS:      82766  HIT:      82766  MISS:          0  HIT %:        100  MISS %:          0   MPKI: 0
PSCL3 PREFETCH  REQUESTED:          0  ISSUED:          0  USEFUL:          0  USELESS:          0
PSCL3 USEFUL LOAD PREFETCHES:          0 PREFETCH ISSUED TO LOWER LEVEL:          0  ACCURACY: -nan
PSCL3 TIMELY PREFETCHES:          0 LATE PREFETCHES: 0 DROPPED PREFETCHES: 0
PSCL3 PREFETCHES SAME FILL-ORIGIN LEVEL: 0 DIFFERENT FILL-ORIGIN LEVEL: 0

PSCL2 TOTAL     ACCESS:      48013  HIT:      47840  MISS:        173  HIT %:    99.6397  MISS %:   0.360319   MPKI: 0.000865
PSCL2 LOAD TRANSLATION ACCESS:       1407  HIT:       1234  MISS:        173  HIT %:    87.7043  MISS %:    12.2957   MPKI: 0.000865
PSCL2 TRANSLATION FROM L1D PREFETCHER ACCESS:      46606  HIT:      46606  MISS:          0  HIT %:        100  MISS %:          0   MPKI: 0
PSCL2 PREFETCH  REQUESTED:          0  ISSUED:          0  USEFUL:          0  USELESS:          0
PSCL2 USEFUL LOAD PREFETCHES:          0 PREFETCH ISSUED TO LOWER LEVEL:          0  ACCURACY: -nan
PSCL2 TIMELY PREFETCHES:          0 LATE PREFETCHES: 0 DROPPED PREFETCHES: 0
PSCL2 PREFETCHES SAME FILL-ORIGIN LEVEL: 0 DIFFERENT FILL-ORIGIN LEVEL: 0

LLC TOTAL     ACCESS:     116974  HIT:      65078  MISS:      51896  HIT %:    55.6346  MISS %:    44.3654   MPKI: 0.25948
LLC LOAD      ACCESS:      32002  HIT:      11740  MISS:      20262  HIT %:    36.6852  MISS %:    63.3148   MPKI: 0.10131
LLC RFO       ACCESS:      28694  HIT:      10437  MISS:      18257  HIT %:    36.3735  MISS %:    63.6265   MPKI: 0.091285
LLC PREFETCH  ACCESS:      16501  HIT:       4078  MISS:      12423  HIT %:    24.7137  MISS %:    75.2863   MPKI: 0.062115
AGUS PREFETCH L1 MISS: 0
LLC WRITEBACK ACCESS:      38951  HIT:      38539  MISS:        412  HIT %:    98.9423  MISS %:    1.05774   MPKI: 0.00206
LLC LOAD TRANSLATION ACCESS:        786  HIT:        272  MISS:        514  HIT %:    34.6056  MISS %:    65.3944   MPKI: 0.00257
LLC TRANSLATION FROM L1D PREFETCHER ACCESS:         40  HIT:         12  MISS:         28  HIT %:         30  MISS %:         70   MPKI: 0.00014
LLC PREFETCH  REQUESTED:          0  ISSUED:          0  USEFUL:       1621  USELESS:      10536
LLC USEFUL LOAD PREFETCHES:       1621 PREFETCH ISSUED TO LOWER LEVEL:      12423  ACCURACY: 13.0484
LLC TIMELY PREFETCHES:       1621 LATE PREFETCHES: 0 DROPPED PREFETCHES: 0
LLC PREFETCHES SAME FILL-ORIGIN LEVEL: 0 DIFFERENT FILL-ORIGIN LEVEL: 0
LLC AVERAGE MISS LATENCY: 223.379 cycles
LLC RQ	ACCESS:      61522	FORWARD:          0	MERGED:          0	TO_CACHE:      61522
LLC WQ	ACCESS:      38951	FORWARD:          0	MERGED:          0	TO_CACHE:      38951
LLC PQ	ACCESS:      16501	FORWARD:          0	MERGED:          0	TO_CACHE:      16501

LLC Dense regions hint to LLC: 0

RAW hits: 2186626
Loads Generated: 49539229
Loads sent to L1D: 47352601
Stores Generated: 28475376
Stores sent to L1D: 28475378
Major fault: 0 Minor fault: 2050
Allocated PAGES: 2050
ucb ended
-----------------------------------------------------------------------------------------------------------------------------------------------------------------------------------------------------
Offsets elements: -2200629617861 2200619138080 -2200618986512 -24 1 -1 -33540 23326 2200618892952 -2200618882738 2 -2 2200618882740 103797 -103796 103796 -103791 -3 -288223780680062744 -4398046435840 288228178737082157 -10479781 -2200619138086 -288225978107464038 288228178726602149 -1082251 3 1082223 -6069 -12662052 12662053 -2200619006772 2200619006771 -12662058 12662058 -2200619097671 2200619097673 -97729 -12564326 -5 12668128 -6070 -2200619097670 2200614722479 4277463 97731 -12662059 -2200606435356 2200606435356 12685486 -2200619013136 2200618995778 17360 -17360 -103807 6 10583306 -10462137 -2200619006664 2200619006677 -4 -16 18 -25 22 -121184 121171 -8 -121159 121162 17 -23453 -2200618989746 2200618989748 23448 -2200619121052 2200619121060 -99660 99655 121172 14 -14 12 -12 -121171 121173 121169 -121166 121164 -2200619013135 2200619013160 -6 -121162 121167 16 -53312 53298 -7 -2200619036841 23707 -23942 2200614635836 14865554 -10485830 -4379724 4280074 99658 -2200618973034 2200614593298 14865567 -10585483 49203 32 -3744089787 3739760467 -3739760467 3744089781 50424 -99655 2200619013135 -2200618987839 -25295 2200618991621 -99651 -21521 21538 -21538 21519 -121187 121192 -21540 21518 -21513 21516 -2200619037653 2200619037672 -2200619036861 2200619036862 -121180 -2200618891971 2200618891976 -2200618916491 2200619016136 -99648 99647 21521 -288228178726497928 288228178726497904 -9 99650 21541 -21541 -99643 99645 21520 -71945 71945 -17330 -35 33 10481242 -2200629458240 2200618873155 -2200618916287 43131 -43061 2200618916215 12495103 -12495101 12495064 36 -12495102 12495102 -12495107 12495039 -1909501 -3754626029 3754626028 -3754626028 3756535529 -1909949 1909936 -10585543 12495044 4 5 103839 -2200619019753 2200619037076 -17323 17326 -2200619013138 -288228178726497906 288228178726497903 99648 -121165 -2200618891973 2200618991622 4190 -4190 -3744144340 3744144340 17348 -3744040504 3744040501 121183 -17 -21539 -2200619015327 2200619036846 7 10 -2200619036820 2200619036811 -2200619036847 2200618915671 121174 -99654 121191 21539 21536 -21537 -18 -21520 -2200619015326 2200619036844 -121174 99653 -2200619013524 2200618913869 -2200618913870 -2200618916479 2200619037670 -21536 21540 -121195 99656 -50425 -99657 99657 21533 -19 -21516 -99661 99660 21517 -21518 21510 -21512 21531 -121192 99659 -21519 -22 -2200619036843 13 121194 -2200619120906 2200619120890 11 -21522 21529 -21528 21534 -2200619037675 2200619037666 -2200619036821 2200619036825 -2200619037668 2200618916480 121187 -21529 21532 -21531 21512 -53303 31791 -21530 21528 2200629585906 -10465005 -21523 -23435 2200618989747 -76198 -21544 67886 31776 -23443 1921 -2200619099525 2200619121047 23439 -2200619121049 2200619021408 78118 -31783 31782 -50427 71962 -50451 -49212 67910 31752 -1920 -50178 52097 21513 -50452 -49213 47564 52095 -49211 99662 -2200619015475 2200619015475 -2200619015313 2200619015312 50451 -99669 -2200618915814 2200618919299 96181 -2200619015460 2200618965008 18715 -18715 -99666 -2200618999766 2200619099433 -99667 99667 -49217 -2200618915792 2200619015460 -49220 -2200618871361 2200618871360 -2200618866927 2200618866928 -2200618915817 2200618915816 -2200618915813 -657 2200618916473 17998 -17998 110877 -110878 110879 110878 -110877 -110882 110881 -2200619026671 2200618915793 -2200618915794 2200619026673 -11213 4152 7058 -61662 61665 -2200619110644 2200619048979 -61665 11213 -11212 61663 -110886 48299 -48299 110884 -49218 110883 -110883 67937 -67935 67934 42945 -7058 10479506 -2200629468806 2200618885474 110886 -2200619027352 2200619027352 -51371 -48302 -110879 47568 -47569 -1919 1919 -31790 29870 10486528 -10486529 -31752 -20340 52093 -62584 -48293 47570 52091 -42949 -67929 47572 -47573 23431 1920 -78116 -2200619021408 2200619097604 -29861 -2200618959885 -2200619097604 2200619021400 78126 50426 -76206 -4152 -48532 -2200618941136 2200618435334 556253 -2200619016137 2200618459888 577767 -21515 774 -773 -50426 54580 -50428 -27698 78124 -1918 10483658 -10561778 -21549 21544 17520 60582 10485593 -1913 -10483658 -27703 78130 -78127 78127 -2200619106780 2200619106780 99670 50427 -99668 17527 10546175 -10485574 -2200619015560 2200618937431 78131 -78126 -2200619028653 2200619106779 -27671 27671 21554 78117 -51819 10535478 -2200629499601 2200629501628 -10585359 99672 10485687 -2200629501243 2200618937425 10563818 -2022 2200629470833 -10585358 10586208 -10586208 39067 -39065 10585241 -10563702 82283 -103821 103819 2200629468806 2200629469107 -11592681 1112874 -2200629499798 30992 2200618989300 -10479506 10479809 -2200629500201 100 614 2200629501206 -10585350 10585355 -2200629501206 -10485685 -78130 10563810 -10585355 99675 -2200619015563 2200619015561 78132 -78120 78122 241 2200618915646 21543 -2200619015320 2200619015321 -78117 46326 10486527 -10486527 50452 18660 -18636 10536958 -10536982 -31751 -20348 52099 -49227 47577 -47580 99676 -67946 -72465668615 72465668616 47582 52098 -31781 29862 -48531 50450 -50450 -27666 46364 -20336 52089 -63302 718 51371 -52087 63300 -67944 47593 -47594 99680 -2200618915862 2200618866631 -2200618915680 -83977 2200619099340 -78118 18659 31792 -10486526 50449 -1922 27666 -2200618920579 4701 -4701 2200618871344 -2200618915644 2200618915645 -2200618866639 3578956 2200615408850 -71932 71943 -21486 11211 -42932 31722 21485 -121169 99685 -99682 10462178 -10462176 -21482 21499 -71927 50428 21500 -71951 71934 -2200619036809 2200619036828 -121185 121165 -21480 21482 -21485 21492 -23413 46342 20 71956 -71955 71955 71951 -71956 21501 -21507 21507 -2200619035015 2200618913838 121189 -2200619037637 2200619037643 -121191 121193 -21506 -2200619003882 2200618882695 99686 19 -2200619120875 2200619120883 -121188 71948 -2200619037636 845 2200618915607 121195 -2200619037648 2200618965688 -121190 -97768 99688 -21501 -21483 21483 -21484 -121168 -2200618891936 2200619013124 21498 -21497 -71930 71936 -2200619037645 2200619037637 -21504 21502 -2200619036814 2200619015331 21503 -121186 21508 8 -72866 72863 -13 -23406 -2200619097603 2200619121022 -2200619036791 2200619036782 -2200619037053 2200614635842 14865548 -14865548 4377814 -97778 97779 -2200618971134 2200614593304 14865561 -14865561 4280046 46741 -46738 46691 -3744087213 3739760475 -3739760475 3744087271 -46748 97781 23408 -2200619035029 -2610 2610 2200619011620 23414 -23393 23394 23393 -11 -23390 23409 97780 -23397 -2200619036835 2200619036813 -2200619120876 2200619120860 -23399 -97782 23407 -23407 -23409 23390 23410 -53293 29886 23406 10465030 -10465035 -23400 23389 -2200619120860 2200619120864 -23405 -2200618989748 2200618913550 29869 23398 23413 -2200619121017 -99611 76211 23388 -53274 -21157 74426 -23394 -51041 21194 29845 50190 23387 -73591 -848 -46744 47595 50188 -51039 51040 -2200619013568 2200618962527 -2200618962365 2200619013405 -2200619013573 -2200618919278 2200619013552 -29830 -21211 51039 -2200619097524 2200618999737 97788 -97789 -2200618915617 -46750 -2200618915763 2200619013553 -46751 -2200618866899 -4433 2200618871336 -2200618915788 2200618915788 -2200618915784 2200618916445 11837 -11837 110906 -110905 110905 -110906 110907 -110911 110910 6059 7060 -110908 -64158 64161 -13121 2200619110644 -13119 -51040 64159 62585 -64160 64160 -110912 110911 67966 -67964 110912 -42946 35888 -110914 110913 -110909 97790 -97786 -2200618916446 2200618916447 48320 -724 50187 -29883 29884 -29844 29833 10488449 -10488436 13121 49463 -63306 63306 63304 -20355 50183 -23401 15 6074 -82270 107858 2200618989760 -51032 -2200618938648 2200618989666 -51028 -2200619046578 46343 -524471 554347 -554345 557026 -2680 -51030 51033 -51033 -25186 76217 -76212 10561778 17514 -17520 78104 -60582 10544262 1913 -10487478 -25191 76219 -2200619104872 2200619104872 -97791 -76223 -17523 -25192 10563703 -10487480 -2200619013654 2200619013656 -2200619104873 2200619128265 -99608 26303 49911 -76210 25170 10536606 -10563818 2200629501243 853 -10586237 39096 -39095 103851 -103849 10585267 -103848 121163 -121161 67887 -67885 10586201 -845 -10487592 -76222 -2200618937433 76222 10487590 -10487588 -76225 -2200618937441 2200618962623 -25178 -2200619013415 2200618983529 -21156 10488434 -10488439 51038 50192 846 -47579 97768 -29828 42949 -72465779507 72465716197 -29873 29875 51041 -25170 89330 -42966 -19618 19635 -20353 50180 -2200618962415 49049 -133026 2200619097433 -76208 46325 10518319 -10539474 -51038 -15 -51026 51028 -2200618913382 4705 -49005 46734 13119 -2200615358800 2200615382219 -23421 23422 -99632 99628 -74458 -29814 53234 10462146 -10485565 23436 -23437 23419 -74452 74454 -23422 -121189 67882 10517474 843 -10586200 -2200618916466 2200618916469 10585350 -10585352 10585235 -10585235 103823 10481516 -2010 -103820 103820 -103822 99654 -2200619037673 2200619016134 21545 -2200619037468 2200629500167 -10462699 121188 10462699 -566 2200629501593 -10585312 -2200618916280 -2200629500364 2200629500364 10583889 10583886 10583885 -10583886 -121172 -31786 -67866 -72465668638 72465768291 121186 -2200619036868 -2200619037665 2200619037665 -2200619036863 2200619036863 -2200619037666 2200619037655 -12685495 12564318 103807 -121167 121168 2200618885492 97745 23429 -10 -23418 23420 -2200618913550 2200618989761 -29868 53290 -74477 74481 -74481 74477 -74482 -121193 -23445 23440 23425 -2200619035059 2200619013524 2200619035057 -2200619037667 2200619037679 -2200619037655 -2200619016134 121196 -23444 -2200619003917 2200618882723 97750 -29885 74482 -72465789837 72465789838 -2200619120905 2200619120913 -121194 121190 74474 2200619037675 -2200619036810 -21543 -99653 -2200618991622 2200619013138 -99659 99661 -49236 -99664 121199 -21 -2200619037672 -2200618915671 -810 2200619037673 -121196 -23451 2200618999863 121202 -121199 121198 -2200618915634 2200618915635 -2200619036827 2200618915630 -2200618915631 2200619036821 121170 23 -53315 -2200618983513 2200619036829 -2200618916477 2200619037671 -2200619036864 23437 -74475 97749 -97741 97752 -97752 97754 51032 -3744138304 -10585487 -2200619013658 -3739760437 3739760437 -10585485 -121177 -12564318 12685503 103808 -103808 121166 2200619013141 -10583313 -2200618885493 2200618885493 97730 -12684627 22568 -22568 12586898 -12564321 12662049 -97730 -1025724 1129553 -6099 12564331 -288223780680062746 252 288228178737081905 -2200619138087 2200619138112 978426 97720 6077 -6078 -97718 -12564336 -2200606344709 2200619006764 -12684609 12586887 -12564329 12662051 -1123446 1025725 -2200619097662 2200619097663 -97721 12668138 4277462 97723 -12564339 12564338 -2200618999683 2200606435346 12685466 -2200619013106 2200619013109 -17331 17330 -121136 121136 -103806 10583312 -10583311 121134 -2200619006628 2200619006636 -20 21 21504 -121154 -99649 49196 -49221 105737 -105737 121153 -121150 121160 4153 -4155 -2200619013108 2200618891970 -3744089725 3744089725 -3744140209 -10585481 -2200619015565 2200619015567 -4379731 -3739760429 3739760429 -14865554 -10585479 -2200619036813 2200619036814 103806 2200619013111 -10583312 2200618885494 97722 -12684610 22549 -22549 12586889 -12564331 1025724 103829 -103826 -4398046435838 2200619138111 1076146 12662055 -2200619006764 2200618909043 -12662060 12662060 -12662057 12564336 -12564341 -4381261 4375183 2200618999942 -12662061 -2200606435346 10462176 121139 121141 -121129 121132 -23423 99622 121142 -121141 121143 -2200619013105 2200619013130 -121132 67871 -67871 121137 -2200619036818 -2200619013104 10485830 4379732 -99658 2200618873381 -4280083 -14865567 4329288 10536279 4329320 -3744040552 4280086 -3744040553 3744040554 49227 -2200618891969 -21491 -21508 21488 -2200619037642 2200619037642 -21510 -2200619036831 2200619036832 -2200619013121 2200618891971 -2200618916486 2200618916491 21511 -21511 21489 21490 -71915 71915 -17300 -103841 -3744040499 -17296 2200619015562 -2200618991621 2200619013112 -121135 99649 -2200618995812 2196874851472 17318 99646 -3744140147 3744161638 -2200619036816 2200619015325 -2200619036781 -36 2200619015326 21506 21509 -21490 2200619037640 -21509 49232 21487 -21488 21486 21491 -21489 -21492 -21498 2200619036795 -2200619037638 -21499 -21500 -31793 53289 -2200629585906 2200619120871 -21493 -1921 71908 53269 18698 -52097 73580 -71943 -1648 -2200619015480 2200619015459 -49219 -2200618999762 2200619099432 -2200618915646 -2200618871362 4433 11808 99069 -110876 110876 -110881 110880 -7060 -4153 -2200619110645 2200619048980 -61664 61664 49218 -42948 2200618996360 -48301 -52093 -52091 720 62584 -63304 67927 31735 23401 -2200619099524 -2200619067743 6072 27674 2200618991587 -556253 556254 -556252 10483660 -10483659 -60605 10178 -10176 78105 -21487 -1368 -47852 10483659 2200619015941 -2200619015556 10583325 -2200619020392 2200629500201 -2200629500101 -10485680 -78132 -78122 10518318 -31792 10486530 31751 -52099 52102 -1650 -72465736558 72465668615 47581 -47581 31781 -718 52087 47594 -49049 31793 -10486528 -48530 48532 2200618866643 2200618866641 -2200615261027 -71962 21522 89328 71966 10462148 -10462146 21530 -71940 -2200618964875 2200619036858 -31776 -71981 71981 -71980 -21532 21514 -2200619003912 2200618982381 -2200619037678 2200619037650 -53302 -72465736515 72465789820 -21514 -99687 -2200618891939 2200619013152 -21527 -71960 2200619037667 -21534 -2200619015329 2200619036861 -2200619036844 2200619015330 -121218 -23448 -2200619036812 -84230 83959 10487734 4377818 -2200618971130 -10538775 -4326786 46692 -46692 -3744040522 4280049 -3744040524 23438 2200619037674 23424 23423 -23420 -121220 -23427 -2200619036865 2200619036843 -23429 -97781 -23439 29883 10464996 -10488433 -23430 -2200619120890 2200619120894 -2200619097618 99635 -29875 53293 -74461 74456 -23424 -50193 73610 -74469 852 -47596 97784 -97784 46743 2200619013567 -2200619013405 2200619013406 21211 -2200619046485 2200619097524 -97787 -97793 46751 -2200618918083 2200618866903 18027 92879 -110910 -2200619019612 -64161 -2200619046483 13120 -110913 42948 -103854 -2200618916438 2200619014232 48325 -48324 47596 29871 10488437 -10518281 722 -722 -67958 -23431 -50182 50171 -6072 2200618913542 -2200618989681 2200618989680 29874 -51031 -503314 503306 74463 -76219 -478126 -2200619014232 2200619014233 17522 10483680 -97790 46758 25187 -2200629592351 -2200619013653 76224 2200619104871 -25175 -1128 10561776 -10585387 10586236 -10547141 64756 10586233 -10586235 10585269 -21564 121205 -72881 -48316 67892 -67889 10585356 10585358 -2200629501248 -10487587 -76220 -2200618937204 2200619013413 -10539467 10488438 -10488440 67940 29828 -97771 110891 97771 -50190 50191 51027 -76209 -49463 63302 20353 -20351 -2200618913366 51026 -2200618892913 -49001 49005 74439 29815 46736 23392 10485568 -23391 23391 -97776 46735 -46734 -67888 121161 -10585357 2200629501820 -10585351 -10585234 -10585339 10583329 103822 -103819 -2200618916480 -2200619037438 -10462729 10462729 -10462163 -197 2200629501790 -1426 10583887 -10583885 -121138 10583882 -10484230 -31788 53277 -72465789794 72465789799 -2200619036838 -2200619037635 2200619037635 -121156 -121147 -2200618915670 -811 2200618916482 12685468 10485567 2200619006628 -23388 9 29868 74432 -74447 74451 -74451 74447 -74448 74452 -121163 -2200619011620 2200619035035 23395 -121155 -23414 2200618980473 -53272 23411 -72465789811 72465715359 74448 -23410 -2200619014233 2200619037641 -2200619036792 2200619036780 -2200619120864 2200619120887 -74456 52942 2200619013131 2200619037625 
Potential of Offsets elements: 28.4083 28.4083 28.4083 415.408 2352.11 1993.67 28.4083 28.4083 28.4083 28.4083 1726.41 2034.41 28.4083 54.4083 64.4083 28.4083 28.4083 1303.41 28.4083 28.4083 29.4083 37.4083 28.4083 28.4083 32.4083 28.4083 579.408 40.4083 98.4083 28.4083 28.4083 30.4083 28.4083 28.4083 122.408 29.4083 28.4083 137.408 56.4083 422.408 32.4083 226.408 28.4083 28.4083 36.4083 126.408 28.4083 28.4083 44.4083 28.4083 28.4083 79.4083 28.4083 63.4083 49.4083 1058.41 33.4083 28.4083 28.4083 28.4083 368.408 646.408 401.408 60.4083 517.408 270.408 191.408 292.408 340.408 469.408 93.4083 31.4083 30.4083 34.4083 67.4083 37.4083 38.4083 36.4083 127.408 28.4083 132.408 802.408 808.408 478.408 252.408 491.408 30.4083 202.408 41.4083 67.4083 44.4083 692.408 373.408 42.4083 126.408 40.4083 33.4083 428.408 28.4083 28.4083 32.4083 28.4083 37.4083 32.4083 28.4083 32.4083 168.408 28.4083 28.4083 36.4083 37.4083 28.4083 43.4083 28.4083 37.4083 28.4083 28.4083 104.408 67.4083 28.4083 28.4083 28.4083 31.4083 172.408 678.408 156.408 31.4083 37.4083 28.4083 84.4083 28.4083 662.408 41.4083 83.4083 28.4083 28.4083 62.4083 38.4083 392.408 28.4083 35.4083 82.4083 28.4083 53.4083 166.408 546.408 28.4083 28.4083 737.408 31.4083 251.408 50.4083 216.408 33.4083 42.4083 28.4083 28.4083 28.4083 73.4083 28.4083 28.4083 28.4083 28.4083 28.4083 28.4083 28.4083 28.4083 28.4083 28.4083 28.4083 41.4083 28.4083 28.4083 28.4083 28.4083 28.4083 28.4083 28.4083 28.4083 28.4083 28.4083 28.4083 28.4083 28.4083 1416.41 1203.41 32.4083 28.4083 28.4083 28.4083 28.4083 42.4083 225.408 28.4083 28.4083 207.408 44.4083 32.4083 28.4083 118.408 28.4083 28.4083 55.4083 52.4083 28.4083 582.408 476.408 142.408 67.4083 28.4083 354.408 467.408 29.4083 40.4083 32.4083 48.4083 28.4083 28.4083 245.408 53.4083 522.408 60.4083 636.408 29.4083 34.4083 54.4083 298.408 257.408 28.4083 28.4083 34.4083 28.4083 112.408 114.408 177.408 237.408 175.408 302.408 91.4083 279.408 594.408 108.408 77.4083 169.408 35.4083 173.408 49.4083 344.408 59.4083 142.408 28.4083 28.4083 860.408 474.408 58.4083 161.408 633.408 28.4083 28.4083 647.408 144.408 329.408 31.4083 230.408 28.4083 28.4083 78.4083 28.4083 34.4083 28.4083 309.408 50.4083 126.408 177.408 92.4083 39.4083 76.4083 56.4083 28.4083 28.4083 28.4083 330.408 54.4083 30.4083 28.4083 30.4083 43.4083 28.4083 69.4083 618.408 50.4083 28.4083 28.4083 28.4083 28.4083 66.4083 108.408 35.4083 62.4083 28.4083 28.4083 35.4083 42.4083 76.4083 80.4083 28.4083 132.408 131.408 28.4083 111.408 28.4083 28.4083 28.4083 31.4083 28.4083 28.4083 102.408 28.4083 82.4083 228.408 28.4083 28.4083 28.4083 202.408 28.4083 28.4083 28.4083 174.408 28.4083 49.4083 654.408 103.408 152.408 50.4083 28.4083 32.4083 37.4083 30.4083 28.4083 28.4083 68.4083 28.4083 28.4083 52.4083 42.4083 28.4083 28.4083 369.408 28.4083 28.4083 366.408 29.4083 28.4083 28.4083 64.4083 28.4083 28.4083 78.4083 152.408 138.408 28.4083 28.4083 28.4083 28.4083 44.4083 28.4083 28.4083 28.4083 28.4083 28.4083 28.4083 46.4083 28.4083 180.408 47.4083 120.408 28.4083 28.4083 68.4083 28.4083 28.4083 30.4083 64.4083 37.4083 28.4083 168.408 28.4083 28.4083 34.4083 35.4083 28.4083 29.4083 519.408 49.4083 28.4083 37.4083 28.4083 28.4083 36.4083 34.4083 28.4083 28.4083 40.4083 30.4083 28.4083 30.4083 50.4083 28.4083 28.4083 28.4083 28.4083 28.4083 30.4083 33.4083 29.4083 28.4083 55.4083 28.4083 28.4083 172.408 28.4083 104.408 28.4083 28.4083 28.4083 28.4083 64.4083 28.4083 28.4083 29.4083 28.4083 28.4083 73.4083 92.4083 37.4083 30.4083 111.408 53.4083 28.4083 28.4083 112.408 28.4083 28.4083 31.4083 28.4083 28.4083 28.4083 52.4083 28.4083 29.4083 83.4083 28.4083 28.4083 547.408 252.408 142.408 28.4083 37.4083 28.4083 30.4083 29.4083 132.408 28.4083 28.4083 28.4083 28.4083 28.4083 42.4083 184.408 28.4083 28.4083 37.4083 28.4083 28.4083 305.408 50.4083 28.4083 29.4083 28.4083 28.4083 28.4083 48.4083 30.4083 28.4083 40.4083 28.4083 28.4083 37.4083 28.4083 122.408 28.4083 78.4083 28.4083 28.4083 36.4083 38.4083 53.4083 30.4083 64.4083 28.4083 28.4083 33.4083 28.4083 28.4083 28.4083 70.4083 28.4083 28.4083 302.408 28.4083 28.4083 851.408 35.4083 28.4083 28.4083 115.408 28.4083 28.4083 51.4083 64.4083 28.4083 28.4083 338.408 28.4083 28.4083 28.4083 28.4083 28.4083 34.4083 34.4083 28.4083 28.4083 34.4083 28.4083 77.4083 58.4083 49.4083 28.4083 28.4083 30.4083 30.4083 28.4083 170.408 42.4083 28.4083 28.4083 28.4083 28.4083 36.4083 49.4083 28.4083 28.4083 54.4083 30.4083 28.4083 28.4083 80.4083 28.4083 28.4083 28.4083 91.4083 28.4083 28.4083 28.4083 28.4083 28.4083 28.4083 28.4083 28.4083 28.4083 28.4083 41.4083 28.4083 28.4083 28.4083 28.4083 28.4083 28.4083 28.4083 28.4083 28.4083 28.4083 28.4083 28.4083 28.4083 28.4083 28.4083 28.4083 28.4083 28.4083 28.4083 28.4083 28.4083 28.4083 28.4083 28.4083 28.4083 28.4083 28.4083 28.4083 28.4083 28.4083 28.4083 28.4083 28.4083 28.4083 28.4083 28.4083 28.4083 28.4083 28.4083 252.408 40.4083 76.4083 48.4083 212.408 58.4083 231.408 36.4083 820.408 28.4083 28.4083 152.408 158.408 56.4083 28.4083 291.408 205.408 28.4083 33.4083 289.408 433.408 28.4083 32.4083 223.408 28.4083 88.4083 36.4083 28.4083 202.408 28.4083 28.4083 161.408 136.408 28.4083 297.408 63.4083 58.4083 28.4083 35.4083 40.4083 35.4083 732.408 32.4083 49.4083 134.408 28.4083 208.408 102.408 130.408 30.4083 34.4083 28.4083 70.4083 218.408 918.408 28.4083 28.4083 683.408 28.4083 28.4083 51.4083 31.4083 32.4083 28.4083 28.4083 28.4083 28.4083 28.4083 28.4083 28.4083 28.4083 28.4083 28.4083 28.4083 34.4083 28.4083 28.4083 28.4083 28.4083 28.4083 28.4083 28.4083 28.4083 28.4083 38.4083 28.4083 52.4083 64.4083 28.4083 29.4083 28.4083 28.4083 28.4083 300.408 28.4083 175.408 28.4083 28.4083 37.4083 31.4083 32.4083 28.4083 28.4083 28.4083 28.4083 47.4083 28.4083 28.4083 76.4083 28.4083 28.4083 40.4083 28.4083 28.4083 73.4083 28.4083 50.4083 31.4083 37.4083 29.4083 38.4083 28.4083 59.4083 64.4083 30.4083 28.4083 30.4083 28.4083 40.4083 28.4083 28.4083 28.4083 28.4083 28.4083 28.4083 28.4083 28.4083 56.4083 28.4083 28.4083 28.4083 28.4083 28.4083 28.4083 28.4083 28.4083 28.4083 28.4083 28.4083 28.4083 28.4083 28.4083 28.4083 28.4083 28.4083 28.4083 28.4083 28.4083 29.4083 28.4083 28.4083 36.4083 28.4083 28.4083 28.4083 28.4083 28.4083 28.4083 30.4083 28.4083 28.4083 28.4083 34.4083 28.4083 28.4083 28.4083 28.4083 28.4083 28.4083 28.4083 28.4083 28.4083 28.4083 28.4083 28.4083 53.4083 28.4083 28.4083 28.4083 28.4083 28.4083 28.4083 28.4083 28.4083 28.4083 28.4083 28.4083 28.4083 28.4083 28.4083 28.4083 28.4083 28.4083 28.4083 28.4083 28.4083 36.4083 28.4083 28.4083 28.4083 28.4083 28.4083 32.4083 34.4083 28.4083 28.4083 28.4083 28.4083 28.4083 98.4083 28.4083 28.4083 28.4083 267.408 51.4083 28.4083 30.4083 28.4083 28.4083 28.4083 28.4083 28.4083 28.4083 36.4083 28.4083 28.4083 28.4083 28.4083 28.4083 28.4083 28.4083 28.4083 28.4083 28.4083 28.4083 28.4083 28.4083 32.4083 28.4083 28.4083 58.4083 29.4083 28.4083 28.4083 28.4083 28.4083 28.4083 28.4083 28.4083 28.4083 28.4083 28.4083 28.4083 28.4083 28.4083 28.4083 28.4083 33.4083 28.4083 28.4083 46.4083 28.4083 28.4083 28.4083 57.4083 28.4083 28.4083 28.4083 28.4083 30.4083 28.4083 28.4083 34.4083 421.408 73.4083 35.4083 28.4083 41.4083 62.4083 28.4083 28.4083 32.4083 28.4083 28.4083 28.4083 28.4083 28.4083 28.4083 28.4083 28.4083 28.4083 28.4083 28.4083 28.4083 28.4083 28.4083 28.4083 28.4083 28.4083 28.4083 28.4083 28.4083 30.4083 28.4083 28.4083 28.4083 28.4083 28.4083 104.408 28.4083 28.4083 28.4083 32.4083 28.4083 28.4083 29.4083 28.4083 28.4083 33.4083 30.4083 28.4083 28.4083 212.408 28.4083 28.4083 28.4083 28.4083 28.4083 28.4083 28.4083 28.4083 28.4083 28.4083 38.4083 28.4083 58.4083 28.4083 28.4083 28.4083 64.4083 28.4083 96.4083 139.408 138.408 28.4083 28.4083 28.4083 220.408 35.4083 28.4083 29.4083 28.4083 35.4083 64.4083 28.4083 28.4083 28.4083 31.4083 32.4083 28.4083 30.4083 40.4083 36.4083 38.4083 228.408 28.4083 28.4083 51.4083 28.4083 28.4083 28.4083 338.408 28.4083 28.4083 28.4083 28.4083 30.4083 28.4083 28.4083 28.4083 28.4083 28.4083 28.4083 465.408 34.4083 50.4083 28.4083 39.4083 315.408 28.4083 28.4083 63.4083 28.4083 28.4083 119.408 52.4083 28.4083 28.4083 133.408 145.408 31.4083 32.4083 28.4083 28.4083 304.408 33.4083 57.4083 44.4083 28.4083 30.4083 30.4083 28.4083 28.4083 28.4083 28.4083 28.4083 220.408 28.4083 63.4083 220.408 28.4083 50.4083 28.4083 52.4083 28.4083 63.4083 28.4083 153.408 30.4083 28.4083 28.4083 28.4083 28.4083 28.4083 28.4083 28.4083 28.4083 38.4083 758.408 169.408 28.4083 88.4083 37.4083 41.4083 36.4083 32.4083 28.4083 29.4083 193.408 151.408 677.408 148.408 271.408 28.4083 37.4083 28.4083 91.4083 95.4083 92.4083 28.4083 28.4083 478.408 82.4083 34.4083 43.4083 90.4083 28.4083 31.4083 76.4083 393.408 212.408 28.4083 30.4083 58.4083 42.4083 119.408 45.4083 159.408 28.4083 77.4083 40.4083 54.4083 109.408 28.4083 28.4083 28.4083 28.4083 28.4083 28.4083 28.4083 28.4083 315.408 72.4083 28.4083 28.4083 33.4083 547.408 30.4083 28.4083 56.4083 38.4083 28.4083 28.4083 56.4083 28.4083 28.4083 99.4083 28.4083 28.4083 44.4083 30.4083 28.4083 39.4083 31.4083 28.4083 28.4083 42.4083 28.4083 28.4083 183.408 28.4083 28.4083 46.4083 57.4083 28.4083 28.4083 72.4083 28.4083 28.4083 35.4083 28.4083 28.4083 28.4083 76.4083 28.4083 28.4083 36.4083 71.4083 28.4083 28.4083 50.4083 28.4083 28.4083 32.4083 28.4083 28.4083 56.4083 500.408 174.408 28.4083 88.4083 28.4083 28.4083 48.4083 29.4083 144.408 601.408 135.408 28.4083 28.4083 121.408 28.4083 28.4083 28.4083 99.4083 28.4083 62.4083 182.408 28.4083 28.4083 34.4083 40.4083 28.4083 100.408 56.4083 28.4083 29.4083 28.4083 28.4083 28.4083 37.4083 106.408 46.4083 36.4083 283.408 29.4083 28.4083 83.4083 28.4083 28.4083 34.4083 28.4083 28.4083 28.4083 70.4083 28.4083 36.4083 29.4083 29.4083 28.4083 28.4083 54.4083 28.4083 28.4083 45.4083 34.4083 28.4083 28.4083 66.4083 28.4083 28.4083 37.4083 28.4083 82.4083 231.408 511.408 28.4083 28.4083 28.4083 28.4083 28.4083 413.408 211.408 29.4083 46.4083 28.4083 39.4083 30.4083 423.408 57.4083 28.4083 28.4083 28.4083 29.4083 28.4083 88.4083 28.4083 28.4083 28.4083 28.4083 28.4083 40.4083 52.4083 28.4083 28.4083 35.4083 28.4083 140.408 65.4083 52.4083 28.4083 157.408 28.4083 28.4083 36.4083 58.4083 58.4083 28.4083 90.4083 164.408 28.4083 95.4083 83.4083 32.4083 28.4083 65.4083 49.4083 28.4083 29.4083 32.4083 48.4083 28.4083 183.408 48.4083 28.4083 36.4083 364.408 28.4083 28.4083 28.4083 102.408 28.4083 379.408 32.4083 30.4083 285.408 34.4083 28.4083 207.408 73.4083 176.408 36.4083 28.4083 28.4083 28.4083 166.408 87.4083 37.4083 28.4083 82.4083 28.4083 77.4083 57.4083 28.4083 42.4083 28.4083 56.4083 29.4083 36.4083 28.4083 28.4083 53.4083 55.4083 28.4083 28.4083 171.408 52.4083 28.4083 28.4083 36.4083 28.4083 28.4083 28.4083 28.4083 28.4083 246.408 28.4083 28.4083 172.408 96.4083 28.4083 28.4083 28.4083 28.4083 32.4083 120.408 28.4083 28.4083 28.4083 30.4083 28.4083 28.4083 52.4083 28.4083 28.4083 64.4083 28.4083 28.4083 32.4083 128.408 28.4083 28.4083 34.4083 28.4083 28.4083 193.408 28.4083 28.4083 28.4083 28.4083 56.4083 42.4083 28.4083 52.4083 28.4083 28.4083 38.4083 28.4083 29.4083 28.4083 28.4083 146.408 28.4083 28.4083 51.4083 76.4083 28.4083 28.4083 131.408 28.4083 28.4083 28.4083 46.4083 28.4083 45.4083 36.4083 28.4083 28.4083 28.4083 50.4083 28.4083 28.4083 28.4083 28.4083 28.4083 28.4083 62.4083 56.4083 35.4083 28.4083 44.4083 28.4083 143.408 74.4083 44.4083 52.4083 28.4083 112.408 28.4083 28.4083 33.4083 28.4083 39.4083 28.4083 28.4083 36.4083 32.4083 28.4083 28.4083 135.408 28.4083 35.4083 36.4083 99.4083 28.4083 149.408 70.4083 139.408 30.4083 41.4083 28.4083 500.408 110.408 41.4083 28.4083 28.4083 28.4083 28.4083 28.4083 28.4083 28.4083 28.4083 28.4083 28.4083 28.4083 40.4083 79.4083 46.4083 166.408 99.4083 66.4083 42.4083 61.4083 43.4083 48.4083 51.4083 28.4083 28.4083 28.4083 33.4083 28.4083 46.4083 28.4083 28.4083 28.4083 33.4083 41.4083 48.4083 28.4083 28.4083 119.408 28.4083 28.4083 28.4083 28.4083 34.4083 28.4083 28.4083 28.4083 28.4083 31.4083 28.4083 28.4083 28.4083 28.4083 28.4083 28.4083 28.4083 28.4083 28.4083 28.4083 28.4083 28.4083 28.4083 28.4083 28.4083 28.4083 28.4083 78.4083 28.4083 28.4083 28.4083 28.4083 28.4083 28.4083 46.4083 28.4083 28.4083 28.4083 31.4083 28.4083 78.4083 36.4083 28.4083 47.4083 28.4083 28.4083 28.4083 28.4083 28.4083 28.4083 28.4083 28.4083 28.4083 28.4083 28.4083 28.4083 28.4083 28.4083 28.4083 28.4083 28.4083 34.4083 28.4083 28.4083 28.4083 28.4083 28.4083 28.4083 28.4083 28.4083 28.4083 55.4083 28.4083 28.4083 28.4083 59.4083 296.408 28.4083 28.4083 40.4083 28.4083 28.4083 46.4083 28.4083 28.4083 28.4083 28.4083 31.4083 28.4083 28.4083 28.4083 28.4083 28.4083 30.4083 28.4083 56.4083 28.4083 28.4083 28.4083 28.4083 28.4083 28.4083 38.4083 28.4083 28.4083 28.4083 28.4083 28.4083 28.4083 28.4083 28.4083 28.4083 28.4083 28.4083 28.4083 28.4083 28.4083 28.4083 28.4083 37.4083 345.408 28.4083 77.4083 43.4083 28.4083 32.4083 32.4083 49.4083 72.4083 28.4083 28.4083 28.4083 28.4083 32.4083 28.4083 28.4083 28.4083 28.4083 28.4083 28.4083 28.4083 28.4083 50.4083 28.4083 32.4083 28.4083 28.4083 28.4083 28.4083 126.408 28.4083 54.4083 34.4083 28.4083 68.4083 28.4083 33.4083 28.4083 733.408 28.4083 28.4083 28.4083 28.4083 28.4083 28.4083 28.4083 28.4083 472.408 28.4083 49.4083 28.4083 304.408 28.4083 28.4083 36.4083 136.408 28.4083 28.4083 28.4083 28.4083 28.4083 68.4083 28.4083 34.4083 28.4083 28.4083 28.4083 28.4083 48.4083 124.408 
rewards of Offsets elements: 0 0 0 387 2352 1993 0 0 0 0 1698 2006 0 26 36 0 0 1275 0 0 1 9 0 0 4 0 551 12 70 0 0 2 0 0 94 1 0 109 28 394 4 198 0 0 8 98 0 0 16 0 0 51 0 35 21 1030 5 0 0 0 340 618 373 32 489 242 163 264 312 441 65 3 2 6 39 9 10 8 99 0 104 774 780 450 224 463 2 174 13 39 16 664 345 14 98 12 5 400 0 0 4 0 9 4 0 4 140 0 0 8 9 0 15 0 9 0 0 76 39 0 0 0 3 144 650 128 3 9 0 56 0 634 13 55 0 0 34 10 364 0 7 54 0 25 138 518 0 0 709 3 223 22 188 5 14 0 0 0 45 0 0 0 0 0 0 0 0 0 0 0 13 0 0 0 0 0 0 0 0 0 0 0 0 0 1388 1175 4 0 0 0 0 14 197 0 0 179 16 4 0 90 0 0 27 24 0 554 448 114 39 0 326 439 1 12 4 20 0 0 217 25 494 32 608 1 6 26 270 229 0 0 6 0 84 86 149 209 147 274 63 251 566 80 49 141 7 145 21 316 31 114 0 0 832 446 30 133 605 0 0 619 116 301 3 202 0 0 50 0 6 0 281 22 98 149 64 11 48 28 0 0 0 302 26 2 0 2 15 0 41 590 22 0 0 0 0 38 80 7 34 0 0 7 14 48 52 0 104 103 0 83 0 0 0 3 0 0 74 0 54 200 0 0 0 174 0 0 0 146 0 21 626 75 124 22 0 4 9 2 0 0 40 0 0 24 14 0 0 341 0 0 338 1 0 0 36 0 0 50 124 110 0 0 0 0 16 0 0 0 0 0 0 18 0 152 19 92 0 0 40 0 0 2 36 9 0 140 0 0 6 7 0 1 491 21 0 9 0 0 8 6 0 0 12 2 0 2 22 0 0 0 0 0 2 5 1 0 27 0 0 144 0 76 0 0 0 0 36 0 0 1 0 0 45 64 9 2 83 25 0 0 84 0 0 3 0 0 0 24 0 1 55 0 0 519 224 114 0 9 0 2 1 104 0 0 0 0 0 14 156 0 0 9 0 0 277 22 0 1 0 0 0 20 2 0 12 0 0 9 0 94 0 50 0 0 8 10 25 2 36 0 0 5 0 0 0 42 0 0 274 0 0 823 7 0 0 87 0 0 23 36 0 0 310 0 0 0 0 0 6 6 0 0 6 0 49 30 21 0 0 2 2 0 142 14 0 0 0 0 8 21 0 0 26 2 0 0 52 0 0 0 63 0 0 0 0 0 0 0 0 0 0 13 0 0 0 0 0 0 0 0 0 0 0 0 0 0 0 0 0 0 0 0 0 0 0 0 0 0 0 0 0 0 0 0 0 0 0 0 0 0 0 224 12 48 20 184 30 203 8 792 0 0 124 130 28 0 263 177 0 5 261 405 0 4 195 0 60 8 0 174 0 0 133 108 0 269 35 30 0 7 12 7 704 4 21 106 0 180 74 102 2 6 0 42 190 890 0 0 655 0 0 23 3 4 0 0 0 0 0 0 0 0 0 0 0 6 0 0 0 0 0 0 0 0 0 10 0 24 36 0 1 0 0 0 272 0 147 0 0 9 3 4 0 0 0 0 19 0 0 48 0 0 12 0 0 45 0 22 3 9 1 10 0 31 36 2 0 2 0 12 0 0 0 0 0 0 0 0 28 0 0 0 0 0 0 0 0 0 0 0 0 0 0 0 0 0 0 0 0 1 0 0 8 0 0 0 0 0 0 2 0 0 0 6 0 0 0 0 0 0 0 0 0 0 0 0 25 0 0 0 0 0 0 0 0 0 0 0 0 0 0 0 0 0 0 0 0 8 0 0 0 0 0 4 6 0 0 0 0 0 70 0 0 0 239 23 0 2 0 0 0 0 0 0 8 0 0 0 0 0 0 0 0 0 0 0 0 0 4 0 0 30 1 0 0 0 0 0 0 0 0 0 0 0 0 0 0 0 5 0 0 18 0 0 0 29 0 0 0 0 2 0 0 6 393 45 7 0 13 34 0 0 4 0 0 0 0 0 0 0 0 0 0 0 0 0 0 0 0 0 0 0 0 2 0 0 0 0 0 76 0 0 0 4 0 0 1 0 0 5 2 0 0 184 0 0 0 0 0 0 0 0 0 0 10 0 30 0 0 0 36 0 68 111 110 0 0 0 192 7 0 1 0 7 36 0 0 0 3 4 0 2 12 8 10 200 0 0 23 0 0 0 310 0 0 0 0 2 0 0 0 0 0 0 437 6 22 0 11 287 0 0 35 0 0 91 24 0 0 105 117 3 4 0 0 276 5 29 16 0 2 2 0 0 0 0 0 192 0 35 192 0 22 0 24 0 35 0 125 2 0 0 0 0 0 0 0 0 10 730 141 0 60 9 13 8 4 0 1 165 123 649 120 243 0 9 0 63 67 64 0 0 450 54 6 15 62 0 3 48 365 184 0 2 30 14 91 17 131 0 49 12 26 81 0 0 0 0 0 0 0 0 287 44 0 0 5 519 2 0 28 10 0 0 28 0 0 71 0 0 16 2 0 11 3 0 0 14 0 0 155 0 0 18 29 0 0 44 0 0 7 0 0 0 48 0 0 8 43 0 0 22 0 0 4 0 0 28 472 146 0 60 0 0 20 1 116 573 107 0 0 93 0 0 0 71 0 34 154 0 0 6 12 0 72 28 0 1 0 0 0 9 78 18 8 255 1 0 55 0 0 6 0 0 0 42 0 8 1 1 0 0 26 0 0 17 6 0 0 38 0 0 9 0 54 203 483 0 0 0 0 0 385 183 1 18 0 11 2 395 29 0 0 0 1 0 60 0 0 0 0 0 12 24 0 0 7 0 112 37 24 0 129 0 0 8 30 30 0 62 136 0 67 55 4 0 37 21 0 1 4 20 0 155 20 0 8 336 0 0 0 74 0 351 4 2 257 6 0 179 45 148 8 0 0 0 138 59 9 0 54 0 49 29 0 14 0 28 1 8 0 0 25 27 0 0 143 24 0 0 8 0 0 0 0 0 218 0 0 144 68 0 0 0 0 4 92 0 0 0 2 0 0 24 0 0 36 0 0 4 100 0 0 6 0 0 165 0 0 0 0 28 14 0 24 0 0 10 0 1 0 0 118 0 0 23 48 0 0 103 0 0 0 18 0 17 8 0 0 0 22 0 0 0 0 0 0 34 28 7 0 16 0 115 46 16 24 0 84 0 0 5 0 11 0 0 8 4 0 0 107 0 7 8 71 0 121 42 111 2 13 0 472 82 13 0 0 0 0 0 0 0 0 0 0 0 12 51 18 138 71 38 14 33 15 20 23 0 0 0 5 0 18 0 0 0 5 13 20 0 0 91 0 0 0 0 6 0 0 0 0 3 0 0 0 0 0 0 0 0 0 0 0 0 0 0 0 0 0 50 0 0 0 0 0 0 18 0 0 0 3 0 50 8 0 19 0 0 0 0 0 0 0 0 0 0 0 0 0 0 0 0 0 6 0 0 0 0 0 0 0 0 0 27 0 0 0 31 268 0 0 12 0 0 18 0 0 0 0 3 0 0 0 0 0 2 0 28 0 0 0 0 0 0 10 0 0 0 0 0 0 0 0 0 0 0 0 0 0 0 0 9 317 0 49 15 0 4 4 21 44 0 0 0 0 4 0 0 0 0 0 0 0 0 22 0 4 0 0 0 0 98 0 26 6 0 40 0 5 0 705 0 0 0 0 0 0 0 0 444 0 21 0 276 0 0 8 108 0 0 0 0 0 40 0 6 0 0 0 0 20 96 Printing Sanity3
offset_index value1682
offset list size1682
reward size1682
potential size1682
-----------------------------------------------------------------------------------------------------------------------------------------------------------------------------------------------------

DRAM Statistics
 CHANNEL 0
 RQ ROW_BUFFER_HIT:      19340  ROW_BUFFER_MISS:      32144
 DBUS_CONGESTED:         13
 WQ ROW_BUFFER_HIT:       6960  ROW_BUFFER_MISS:      21115  FULL:          0

 AVG_CONGESTED_CYCLE: 4
 All warmup complete: 2
Channel 0 Bank busy for read cycles: 0
Channel 0 Bank busy for write cycles: 0
Channel 0
Rank 0
0banks busy for read cycles: 348631555
0banks busy for write cycles: 5489
1banks busy for read cycles: 1555322
1banks busy for write cycles: 802545
2banks busy for read cycles: 465235
2banks busy for write cycles: 275681
3banks busy for read cycles: 144073
3banks busy for write cycles: 175340
4banks busy for read cycles: 145880
4banks busy for write cycles: 114222
5banks busy for read cycles: 43572
5banks busy for write cycles: 78351
6banks busy for read cycles: 59319
6banks busy for write cycles: 67672
7banks busy for read cycles: 73330
7banks busy for write cycles: 68769
8banks busy for read cycles: 162613
8banks busy for write cycles: 235354

CPU 0 Branch Prediction Accuracy: 99.9274% MPKI: 0.113335 Average ROB Occupancy at Mispredict: 10.4093
Branch types
NOT_BRANCH: 168787544 84.3938%
BRANCH_DIRECT_JUMP: 1774351 0.887176%
BRANCH_INDIRECT: 11507664 5.75383%
BRANCH_CONDITIONAL: 9680226 4.84011%
BRANCH_DIRECT_CALL: 3347214 1.67361%
BRANCH_INDIRECT_CALL: 777882 0.388941%
BRANCH_RETURN: 4125097 2.06255%
BRANCH_OTHER: 0 0%

DRAM PAGES: 1048576
Allocated PAGES: 2050
