
*** ChampSim Multicore Out-of-Order Simulator ***

Warmup Instructions: 50000000
Simulation Instructions: 200000000
Number of CPUs: 1
LLC sets: 2048
LLC ways: 16
Off-chip DRAM Size: 4096 MB Channels: 1 Width: 64-bit Data Rate: 6400 MT/s
CPU 0 runs traces/spec2k17/server_010.champsimtrace.xz
.xz
BTB has LRU replacement policy
ITLB has LRU replacement policy
DTLB has LRU replacement policy
STLB has LRU replacement policy
L1I has LRU replacement policy
L1D has LRU replacement policy
Initialize SRRIP state for L2C
Initialize DRRIP state for LLC
Offsets elements: 
Potential of Offsets elements: 
rewards of Offsets elements: 
Printing Sanity1
offset list size693
Offsets elements: 
Potential of Offsets elements: 
rewards of Offsets elements: 1022 994 1196 0 0 220 121 168 54 0 0 0 0 0 0 0 0 0 0 0 0 0 0 0 0 0 0 0 0 728 1831 0 0 0 0 0 0 0 0 0 0 0 0 1 0 0 0 0 0 0 0 0 0 0 0 0 0 0 0 0 0 0 0 0 0 0 0 0 983 0 0 0 0 0 28 0 0 0 0 0 5 18 54 42 0 0 12 9 0 1963 0 0 1 0 51 54 55 364 9 11 18 21 42 90 152 16 0 0 0 0 0 0 0 0 0 0 0 0 0 0 0 0 0 9 0 0 0 0 0 0 0 0 0 332 0 0 0 0 0 0 0 0 0 0 0 0 0 0 0 0 18 0 0 0 0 2 0 0 0 0 4 8 34 0 10 451 208 320 45 171 213 336 143 12 18 121 0 126 42 28 60 66 90 0 0 0 0 0 0 0 0 0 0 0 0 0 0 0 0 0 0 0 0 0 0 0 0 0 0 0 0 0 0 0 0 0 7 0 0 0 0 0 0 0 0 0 0 1 0 0 0 0 0 0 0 0 0 0 0 0 0 0 48 0 0 0 0 0 105 102 184 30 85 14 0 0 0 60 90 48 216 121 180 170 220 308 264 302 0 208 75 25 16 0 0 0 54 22 30 6 2 0 0 0 0 0 0 0 0 0 0 0 0 0 0 0 0 0 0 0 0 0 0 0 0 0 0 0 0 0 0 0 0 0 0 0 0 0 0 0 17 0 0 0 0 0 2 0 0 0 0 0 0 0 0 0 0 0 0 0 0 0 0 351 0 0 0 0 9 0 0 0 0 0 19 84 96 12 18 36 18 142 0 0 0 54 99 121 32 12 27 60 66 56 45 36 7 0 2 6 0 0 0 0 0 0 0 0 0 0 0 0 0 0 0 0 0 0 0 0 1 0 0 0 0 0 0 0 0 0 0 0 0 0 0 0 0 0 0 0 0 0 0 0 0 10 0 0 0 0 0 0 0 0 0 0 0 9 0 0 0 0 54 0 0 0 0 0 0 0 0 0 0 0 55 0 0 301 0 0 0 0 0 0 0 0 0 0 0 0 0 0 0 0 0 0 0 0 6 0 0 0 88 0 0 240 0 0 0 0 0 0 0 35 0 0 48 0 0 0 0 0 0 0 0 0 0 0 0 0 0 0 0 0 0 0 0 0 0 0 175 0 0 0 0 0 0 0 0 0 0 0 0 0 0 0 0 0 0 0 0 0 0 0 0 0 0 0 0 0 0 0 0 0 0 0 0 0 0 0 0 0 0 0 0 0 0 0 0 0 0 0 0 0 0 0 0 0 0 0 0 0 0 0 0 0 0 0 0 0 0 0 0 0 0 0 0 0 0 0 0 0 0 0 0 0 0 0 133 0 0 0 0 0 0 0 0 0 0 0 0 42 88 0 0 0 0 0 0 0 43 0 0 0 0 0 0 0 0 0 576 0 0 0 0 0 0 0 0 0 0 0 0 0 0 87 0 0 0 0 0 0 7 0 0 33 36 18 8 0 0 0 4 42 0 1 75 0 0 0 0 0 0 0 0 0 0 0 0 0 0 0 0 
Printing Sanity2
Heartbeat CPU 0 instructions: 10000003 cycles: 2808560 heartbeat IPC: 3.56054 cumulative IPC: 3.56054 (Simulation time: 0 hr 0 min 22 sec) 
Heartbeat CPU 0 instructions: 20000002 cycles: 5619398 heartbeat IPC: 3.55766 cumulative IPC: 3.5591 (Simulation time: 0 hr 0 min 43 sec) 
Heartbeat CPU 0 instructions: 30000002 cycles: 8432012 heartbeat IPC: 3.55541 cumulative IPC: 3.55787 (Simulation time: 0 hr 1 min 5 sec) 
Heartbeat CPU 0 instructions: 40000002 cycles: 11240879 heartbeat IPC: 3.56015 cumulative IPC: 3.55844 (Simulation time: 0 hr 1 min 26 sec) 
Heartbeat CPU 0 instructions: 50000002 cycles: 14053599 heartbeat IPC: 3.55528 cumulative IPC: 3.55781 (Simulation time: 0 hr 1 min 48 sec) 

Warmup complete CPU 0 instructions: 50000002 cycles: 14053599 (Simulation time: 0 hr 1 min 48 sec) 

Heartbeat CPU 0 instructions: 60000001 cycles: 37662809 heartbeat IPC: 0.423563 cumulative IPC: 0.423563 (Simulation time: 0 hr 2 min 22 sec) 
Heartbeat CPU 0 instructions: 70000002 cycles: 61884136 heartbeat IPC: 0.412859 cumulative IPC: 0.418143 (Simulation time: 0 hr 2 min 56 sec) 
Heartbeat CPU 0 instructions: 80000003 cycles: 85740731 heartbeat IPC: 0.419171 cumulative IPC: 0.418485 (Simulation time: 0 hr 3 min 30 sec) 
Heartbeat CPU 0 instructions: 90000001 cycles: 109671730 heartbeat IPC: 0.417868 cumulative IPC: 0.418331 (Simulation time: 0 hr 4 min 4 sec) 
Heartbeat CPU 0 instructions: 100000000 cycles: 140812618 heartbeat IPC: 0.321121 cumulative IPC: 0.394449 (Simulation time: 0 hr 4 min 44 sec) 
*** Reached end of trace for Core: 0 Repeating trace: traces/spec2k17/server_010.champsimtrace.xz
Heartbeat CPU 0 instructions: 110000000 cycles: 168601067 heartbeat IPC: 0.359862 cumulative IPC: 0.38823 (Simulation time: 0 hr 5 min 22 sec) 
Heartbeat CPU 0 instructions: 120000001 cycles: 192870604 heartbeat IPC: 0.412039 cumulative IPC: 0.391462 (Simulation time: 0 hr 5 min 56 sec) 
Heartbeat CPU 0 instructions: 130000003 cycles: 217215372 heartbeat IPC: 0.410766 cumulative IPC: 0.393775 (Simulation time: 0 hr 6 min 30 sec) 
Heartbeat CPU 0 instructions: 140000001 cycles: 241178823 heartbeat IPC: 0.417302 cumulative IPC: 0.396257 (Simulation time: 0 hr 7 min 4 sec) 
Heartbeat CPU 0 instructions: 150000000 cycles: 264920142 heartbeat IPC: 0.421207 cumulative IPC: 0.398618 (Simulation time: 0 hr 7 min 38 sec) 
Heartbeat CPU 0 instructions: 160000000 cycles: 288401749 heartbeat IPC: 0.425865 cumulative IPC: 0.40095 (Simulation time: 0 hr 8 min 13 sec) 
Heartbeat CPU 0 instructions: 170000000 cycles: 312647691 heartbeat IPC: 0.41244 cumulative IPC: 0.401883 (Simulation time: 0 hr 8 min 48 sec) 
Heartbeat CPU 0 instructions: 180000001 cycles: 336269935 heartbeat IPC: 0.42333 cumulative IPC: 0.403456 (Simulation time: 0 hr 9 min 21 sec) 
Heartbeat CPU 0 instructions: 190000001 cycles: 360297783 heartbeat IPC: 0.416184 cumulative IPC: 0.404339 (Simulation time: 0 hr 9 min 55 sec) 
Heartbeat CPU 0 instructions: 200000000 cycles: 386251870 heartbeat IPC: 0.385296 cumulative IPC: 0.403011 (Simulation time: 0 hr 10 min 31 sec) 
*** Reached end of trace for Core: 0 Repeating trace: traces/spec2k17/server_010.champsimtrace.xz
Heartbeat CPU 0 instructions: 210000000 cycles: 419222494 heartbeat IPC: 0.3033 cumulative IPC: 0.394897 (Simulation time: 0 hr 11 min 15 sec) 
Heartbeat CPU 0 instructions: 220000000 cycles: 443388802 heartbeat IPC: 0.413799 cumulative IPC: 0.395961 (Simulation time: 0 hr 11 min 49 sec) 
Heartbeat CPU 0 instructions: 230000001 cycles: 467336116 heartbeat IPC: 0.417583 cumulative IPC: 0.397103 (Simulation time: 0 hr 12 min 23 sec) 
Heartbeat CPU 0 instructions: 240000000 cycles: 491554232 heartbeat IPC: 0.412914 cumulative IPC: 0.397905 (Simulation time: 0 hr 12 min 57 sec) 
Heartbeat CPU 0 instructions: 250000002 cycles: 515401717 heartbeat IPC: 0.419332 cumulative IPC: 0.398924 (Simulation time: 0 hr 13 min 31 sec) 
Finished CPU 0 instructions: 200000000 cycles: 501348118 cumulative IPC: 0.398924 (Simulation time: 0 hr 13 min 31 sec) 

ChampSim completed all CPUs

Region of Interest Statistics

CPU 0 cumulative IPC: 0.398924 instructions: 200000000 cycles: 501348118
ITLB TOTAL     ACCESS:   32857518  HIT:   32108098  MISS:     749420  HIT %:    97.7192  MISS %:    2.28082   MPKI: 3.7471
ITLB LOAD TRANSLATION ACCESS:   32857518  HIT:   32108098  MISS:     749420  HIT %:    97.7192  MISS %:    2.28082   MPKI: 3.7471
ITLB PREFETCH  REQUESTED:          0  ISSUED:          0  USEFUL:          0  USELESS:          0
ITLB USEFUL LOAD PREFETCHES:          0 PREFETCH ISSUED TO LOWER LEVEL:          0  ACCURACY: -nan
ITLB TIMELY PREFETCHES:          0 LATE PREFETCHES: 0 DROPPED PREFETCHES: 0
ITLB PREFETCHES SAME FILL-ORIGIN LEVEL: 0 DIFFERENT FILL-ORIGIN LEVEL: 0
ITLB AVERAGE MISS LATENCY: 16.4992 cycles
ITLB RQ	ACCESS:   39531514	FORWARD:          0	MERGED:    6493722	TO_CACHE:   33037792

DTLB TOTAL     ACCESS:   38730450  HIT:   34862236  MISS:    3868214  HIT %:    90.0125  MISS %:    9.98753   MPKI: 19.3411
DTLB LOAD TRANSLATION ACCESS:   38730450  HIT:   34862236  MISS:    3868214  HIT %:    90.0125  MISS %:    9.98753   MPKI: 19.3411
DTLB PREFETCH  REQUESTED:          0  ISSUED:          0  USEFUL:          0  USELESS:          0
DTLB USEFUL LOAD PREFETCHES:          0 PREFETCH ISSUED TO LOWER LEVEL:          0  ACCURACY: -nan
DTLB TIMELY PREFETCHES:          0 LATE PREFETCHES: 0 DROPPED PREFETCHES: 0
DTLB PREFETCHES SAME FILL-ORIGIN LEVEL: 0 DIFFERENT FILL-ORIGIN LEVEL: 0
DTLB AVERAGE MISS LATENCY: 12.3346 cycles
DTLB RQ	ACCESS:   50104422	FORWARD:          0	MERGED:   11211706	TO_CACHE:   38892716

STLB TOTAL     ACCESS:   27716652  HIT:   27270416  MISS:     446236  HIT %:      98.39  MISS %:    1.60999   MPKI: 2.23118
STLB LOAD TRANSLATION ACCESS:    4617634  HIT:    4175025  MISS:     442609  HIT %:    90.4148  MISS %:    9.58519   MPKI: 2.21305
STLB TRANSLATION FROM L1D PREFETCHER ACCESS:   23099018  HIT:   23095391  MISS:       3627  HIT %:    99.9843  MISS %:   0.015702   MPKI: 0.018135
STLB PREFETCH  REQUESTED:          0  ISSUED:          0  USEFUL:       2925  USELESS:        701
STLB USEFUL LOAD PREFETCHES:       2925 PREFETCH ISSUED TO LOWER LEVEL:          0  ACCURACY: inf
STLB TIMELY PREFETCHES:       2925 LATE PREFETCHES: 12 DROPPED PREFETCHES: 1439793
STLB PREFETCHES SAME FILL-ORIGIN LEVEL: 0 DIFFERENT FILL-ORIGIN LEVEL: 0
STLB AVERAGE MISS LATENCY: 41.5692 cycles
STLB RQ	ACCESS:   34150993	FORWARD:          0	MERGED:    4991961	TO_CACHE:   29159032

STLB Hit, L1D data hit: 0
STLB Hit, L2C data hit: 0
STLB Hit, LLC data hit: 0
STLB Hit, LLC data miss: 0
STLB STLB hints to L2: 0
L1D TOTAL     ACCESS:   76520967  HIT:   68919172  MISS:    7601795  HIT %:    90.0657  MISS %:    9.93426   MPKI: 38.009
L1D LOAD      ACCESS:   30470561  HIT:   26198290  MISS:    4272271  HIT %:     85.979  MISS %:     14.021   MPKI: 21.3614
L1D RFO       ACCESS:   19153513  HIT:   18841527  MISS:     311986  HIT %:    98.3711  MISS %:    1.62887   MPKI: 1.55993
L1D PREFETCH  ACCESS:   26896893  HIT:   23879355  MISS:    3017538  HIT %:    88.7811  MISS %:    11.2189   MPKI: 15.0877
AGUS PREFETCH L1 MISS: 0
L1D PREFETCH  REQUESTED:   60141702  ISSUED:   60141443  USEFUL:     310829  USELESS:    2706700
L1D USEFUL LOAD PREFETCHES:     310829 PREFETCH ISSUED TO LOWER LEVEL:    3027033  ACCURACY: 10.2684
L1D TIMELY PREFETCHES:     310829 LATE PREFETCHES: 6411 DROPPED PREFETCHES: 1653478
L1D PREFETCHES SAME FILL-ORIGIN LEVEL: 3027033 DIFFERENT FILL-ORIGIN LEVEL: 0
L1D AVERAGE MISS LATENCY: 325514 cycles
L1D RQ	ACCESS:   44445796	FORWARD:          0	MERGED:   13636358	TO_CACHE:   30608343
L1D WQ	ACCESS:   19787120	FORWARD:     259393	MERGED:     291041	TO_CACHE:   19496079
L1D PQ	ACCESS:   30608084	FORWARD:          0	MERGED:    1016427	TO_CACHE:   29533359

L1D UNIQUE REGIONS ACCESSED: 0
L1D REGIONS CONFLICTS: 0
L1D Cross Page Prefetch Requests: 3438272
L1D Same Page Prefetch Requests: 33736613
L1D ROI Sum of L1D PQ occupancy: 471314834
L1D PREFETCHES PUSHED FROM L2C: 0
L1I TOTAL     ACCESS:   37988576  HIT:   33251408  MISS:    4737168  HIT %:      87.53  MISS %:      12.47   MPKI: 23.6858
L1I LOAD      ACCESS:   37988576  HIT:   33251408  MISS:    4737168  HIT %:      87.53  MISS %:      12.47   MPKI: 23.6858
L1I PREFETCH  REQUESTED:          0  ISSUED:          0  USEFUL:          0  USELESS:          0
L1I USEFUL LOAD PREFETCHES:          0 PREFETCH ISSUED TO LOWER LEVEL:          0  ACCURACY: -nan
L1I TIMELY PREFETCHES:          0 LATE PREFETCHES: 0 DROPPED PREFETCHES: 0
L1I PREFETCHES SAME FILL-ORIGIN LEVEL: 0 DIFFERENT FILL-ORIGIN LEVEL: 0
L1I AVERAGE MISS LATENCY: 29.7937 cycles
L1I RQ	ACCESS:   58897798	FORWARD:          0	MERGED:   19366284	TO_CACHE:   39531514

BTB TOTAL     ACCESS:   24868891  HIT:   19988027  MISS:    4880864  HIT %:    80.3736  MISS %:    19.6264   MPKI: 24.4043
BTB BRANCH_DIRECT_JUMP	ACCESS:    1753351  HIT:    1473058  MISS:     280293
BTB BRANCH_INDIRECT	ACCESS:   11709257  HIT:    9373220  MISS:    2336037
BTB BRANCH_CONDITIONAL	ACCESS:    4650053  HIT:    4206572  MISS:     443481
BTB BRANCH_DIRECT_CALL	ACCESS:    2659359  HIT:    2113070  MISS:     546289
BTB BRANCH_INDIRECT_CALL	ACCESS:     715231  HIT:     659865  MISS:      55366
BTB BRANCH_RETURN	ACCESS:    3381640  HIT:    2162242  MISS:    1219398
BTB BRANCH_OTHER ACCESS:          0  HIT:          0  MISS:          0

L2C TOTAL     ACCESS:   16408200  HIT:   11662894  MISS:    4745306  HIT %:    71.0797  MISS %:    28.9203   MPKI: 23.7265
L2C LOAD      ACCESS:    9002771  HIT:    5558754  MISS:    3444017  HIT %:    61.7449  MISS %:    38.2551   MPKI: 17.2201
L2C DATA LOAD MPKI: 5.34359
L2C INSTRUCTION LOAD MPKI: 11.8765
L2C RFO       ACCESS:     308848  HIT:     159627  MISS:     149221  HIT %:    51.6846  MISS %:    48.3154   MPKI: 0.746105
L2C PREFETCH  ACCESS:    3026812  HIT:    2150771  MISS:     876041  HIT %:    71.0573  MISS %:    28.9427   MPKI: 4.38021
AGUS PREFETCH L1 MISS: 0
L2C DATA PREFETCH MPKI: 4.38021
L2C INSTRUCTION PREFETCH MPKI: 0
L2C WRITEBACK ACCESS:    1075276  HIT:    1033772  MISS:      41504  HIT %:    96.1402  MISS %:    3.85985   MPKI: 0.20752
L2C LOAD TRANSLATION ACCESS:     560528  HIT:     332372  MISS:     228156  HIT %:    59.2962  MISS %:    40.7038   MPKI: 1.14078
L2C TRANSLATION FROM L1D PREFETCHER ACCESS:    2433965  HIT:    2427598  MISS:       6367  HIT %:    99.7384  MISS %:    0.26159   MPKI: 0.031835
L2C PREFETCH  REQUESTED:          0  ISSUED:          0  USEFUL:      30991  USELESS:     851441
L2C USEFUL LOAD PREFETCHES:      30991 PREFETCH ISSUED TO LOWER LEVEL:     876041  ACCURACY: 3.53762
L2C TIMELY PREFETCHES:      30991 LATE PREFETCHES: 0 DROPPED PREFETCHES: 0
L2C PREFETCHES SAME FILL-ORIGIN LEVEL: 0 DIFFERENT FILL-ORIGIN LEVEL: 0
L2C AVERAGE MISS LATENCY: 39.2561 cycles
L2C RQ	ACCESS:   12306425	FORWARD:          0	MERGED:          0	TO_CACHE:   12306113
L2C WQ	ACCESS:    1075276	FORWARD:        533	MERGED:          0	TO_CACHE:    1075276
L2C PQ	ACCESS:    3027033	FORWARD:          0	MERGED:          0	TO_CACHE:    3026812

L2C Instructions Evicting Data 1067224
L2C Translations Evicting Data 108633
L2C Data Evicting Data 939908
L2C Instructions Evicting Instructions 1192816
L2C Translations Evicting Instructions 114498
L2C Data Evicting Instructions 1048113
L2C Instructions Evicting Translations 115260
L2C Translations Evicting Translations 11392
L2C Data Evicting Translations 105958
L2C Dense regions hint from L2: 0
PSCL5 TOTAL     ACCESS:    1886029  HIT:    1886029  MISS:          0  HIT %:        100  MISS %:          0   MPKI: 0
PSCL5 LOAD TRANSLATION ACCESS:     442597  HIT:     442597  MISS:          0  HIT %:        100  MISS %:          0   MPKI: 0
PSCL5 TRANSLATION FROM L1D PREFETCHER ACCESS:    1443432  HIT:    1443432  MISS:          0  HIT %:        100  MISS %:          0   MPKI: 0
PSCL5 PREFETCH  REQUESTED:          0  ISSUED:          0  USEFUL:          0  USELESS:          0
PSCL5 USEFUL LOAD PREFETCHES:          0 PREFETCH ISSUED TO LOWER LEVEL:          0  ACCURACY: -nan
PSCL5 TIMELY PREFETCHES:          0 LATE PREFETCHES: 0 DROPPED PREFETCHES: 0
PSCL5 PREFETCHES SAME FILL-ORIGIN LEVEL: 0 DIFFERENT FILL-ORIGIN LEVEL: 0

PSCL4 TOTAL     ACCESS:    1726122  HIT:    1725011  MISS:       1111  HIT %:    99.9356  MISS %:  0.0643639   MPKI: 0.005555
PSCL4 LOAD TRANSLATION ACCESS:     404527  HIT:     403416  MISS:       1111  HIT %:    99.7254  MISS %:   0.274642   MPKI: 0.005555
PSCL4 TRANSLATION FROM L1D PREFETCHER ACCESS:    1321595  HIT:    1321595  MISS:          0  HIT %:        100  MISS %:          0   MPKI: 0
PSCL4 PREFETCH  REQUESTED:          0  ISSUED:          0  USEFUL:          0  USELESS:          0
PSCL4 USEFUL LOAD PREFETCHES:          0 PREFETCH ISSUED TO LOWER LEVEL:          0  ACCURACY: -nan
PSCL4 TIMELY PREFETCHES:          0 LATE PREFETCHES: 0 DROPPED PREFETCHES: 0
PSCL4 PREFETCHES SAME FILL-ORIGIN LEVEL: 0 DIFFERENT FILL-ORIGIN LEVEL: 0

PSCL3 TOTAL     ACCESS:    1869831  HIT:    1866286  MISS:       3545  HIT %:    99.8104  MISS %:   0.189589   MPKI: 0.017725
PSCL3 LOAD TRANSLATION ACCESS:     439055  HIT:     435510  MISS:       3545  HIT %:    99.1926  MISS %:   0.807416   MPKI: 0.017725
PSCL3 TRANSLATION FROM L1D PREFETCHER ACCESS:    1430776  HIT:    1430776  MISS:          0  HIT %:        100  MISS %:          0   MPKI: 0
PSCL3 PREFETCH  REQUESTED:          0  ISSUED:          0  USEFUL:          0  USELESS:          0
PSCL3 USEFUL LOAD PREFETCHES:          0 PREFETCH ISSUED TO LOWER LEVEL:          0  ACCURACY: -nan
PSCL3 TIMELY PREFETCHES:          0 LATE PREFETCHES: 0 DROPPED PREFETCHES: 0
PSCL3 PREFETCHES SAME FILL-ORIGIN LEVEL: 0 DIFFERENT FILL-ORIGIN LEVEL: 0

PSCL2 TOTAL     ACCESS:     903688  HIT:     789875  MISS:     113813  HIT %:    87.4057  MISS %:    12.5943   MPKI: 0.569065
PSCL2 LOAD TRANSLATION ACCESS:     443090  HIT:     329277  MISS:     113813  HIT %:    74.3138  MISS %:    25.6862   MPKI: 0.569065
PSCL2 TRANSLATION FROM L1D PREFETCHER ACCESS:     460598  HIT:     460598  MISS:          0  HIT %:        100  MISS %:          0   MPKI: 0
PSCL2 PREFETCH  REQUESTED:          0  ISSUED:          0  USEFUL:          0  USELESS:          0
PSCL2 USEFUL LOAD PREFETCHES:          0 PREFETCH ISSUED TO LOWER LEVEL:          0  ACCURACY: -nan
PSCL2 TIMELY PREFETCHES:          0 LATE PREFETCHES: 0 DROPPED PREFETCHES: 0
PSCL2 PREFETCHES SAME FILL-ORIGIN LEVEL: 0 DIFFERENT FILL-ORIGIN LEVEL: 0

LLC TOTAL     ACCESS:    5206579  HIT:    4916531  MISS:     290048  HIT %:    94.4292  MISS %:     5.5708   MPKI: 1.45024
LLC LOAD      ACCESS:    3444015  HIT:    3239088  MISS:     204927  HIT %:    94.0498  MISS %:    5.95024   MPKI: 1.02463
LLC RFO       ACCESS:     149221  HIT:     112273  MISS:      36948  HIT %:    75.2394  MISS %:    24.7606   MPKI: 0.18474
LLC PREFETCH  ACCESS:     876041  HIT:     836543  MISS:      39498  HIT %:    95.4913  MISS %:    4.50869   MPKI: 0.19749
AGUS PREFETCH L1 MISS: 0
LLC WRITEBACK ACCESS:     502779  HIT:     499410  MISS:       3369  HIT %:    99.3299  MISS %:   0.670076   MPKI: 0.016845
LLC LOAD TRANSLATION ACCESS:     228156  HIT:     222921  MISS:       5235  HIT %:    97.7055  MISS %:    2.29448   MPKI: 0.026175
LLC TRANSLATION FROM L1D PREFETCHER ACCESS:       6367  HIT:       6296  MISS:         71  HIT %:    98.8849  MISS %:    1.11512   MPKI: 0.000355
LLC PREFETCH  REQUESTED:          0  ISSUED:          0  USEFUL:       2509  USELESS:      37105
LLC USEFUL LOAD PREFETCHES:       2509 PREFETCH ISSUED TO LOWER LEVEL:      39498  ACCURACY: 6.35222
LLC TIMELY PREFETCHES:       2509 LATE PREFETCHES: 0 DROPPED PREFETCHES: 0
LLC PREFETCHES SAME FILL-ORIGIN LEVEL: 0 DIFFERENT FILL-ORIGIN LEVEL: 0
LLC AVERAGE MISS LATENCY: 155.6 cycles
LLC RQ	ACCESS:    3827762	FORWARD:          0	MERGED:          0	TO_CACHE:    3827760
LLC WQ	ACCESS:     502779	FORWARD:          2	MERGED:          0	TO_CACHE:     502779
LLC PQ	ACCESS:     876041	FORWARD:          0	MERGED:          0	TO_CACHE:     876041

LLC Dense regions hint to LLC: 0

RAW hits: 2629606
Loads Generated: 47075404
Loads sent to L1D: 44445796
Stores Generated: 19787122
Stores sent to L1D: 19787120
Major fault: 0 Minor fault: 5910
Allocated PAGES: 5910
ucb ended
-----------------------------------------------------------------------------------------------------------------------------------------------------------------------------------------------------
Offsets elements: 2 1 -1 8343671 -4397638429608 4397638274617 145511 -4397638416066 4397638416378 22337 -4976 -8351865 -4397630085938 489474 4397637940135 -9481 -145511 -4397637742066 4397637887578 312 -8351866 8188680 -4397630085940 4397630085939 -4397630085939 4397629363488 -4397628722163 4397629444613 532294 -4 -2 51037 4397629502613 -4398019018600 389481860 4397629536741 -722451 -4397629363488 -2769682 2769682 532287 -518093 -10115 -4081 -4397637897315 -532289 4397630085937 -4397630081875 4397638270554 -8351869 -4397630085934 641325 -58000 -3353007 2783696 -9954 9954 475459 -475459 -9953 519334 4397628840092 -4397629349473 4397637162128 -4397636645895 -333656 -146715 4397629313611 -3 -4397629349470 4397636816455 -4397636816454 97216 -97216 35862 4397637948185 -4397637984047 4397633074298 5332144 -8334455 288223780706293302 -2200618112446 2200618112446 1142572 -1142326 567718 3684 -21392 563729 3 -1113740 1113945 -1113943 -249 255 -288223780706293556 -73 -722450 10 -10 -4398018296091 4398019018543 7090210 -7812655 722446 -4397629889342 333656 -419016 -61355 4397638224960 -8188903 -4397630071919 -509381 4397630071919 -4397629596462 4397629596460 -4397630071922 4397630071922 4397638425548 -8343671 8188678 -4397638420127 4397638420129 -4397638416378 4397638438715 -4397637897122 4397637742130 -722448 722448 4397629444614 -4397629502614 -583325 3301970 6 4397629553648 -549198 4397630085938 -4397630071743 4397630071744 8343670 -9066121 -4397629363489 -4397630081858 -4079 485413 -485412 7812655 -516233 182577 61355 4397636719238 -7466982 4397637984048 -35862 -574608 205 -209 -1113737 -4398019018541 4398018296091 8911356 -8911356 722442 4397630036057 -519334 9953 4397630071920 -4397630071920 -485413 8343673 4397638433739 4976 -4977 43077 4397637897058 -154992 4397632855621 532288 -4397629536740 -388932662 4398019018600 4397630071743 -4397638429610 4397630085940 -4397629363487 -528210 4397630081858 -4397630085937 4062 4397630081875 8188679 8634578 -4397637984048 -1113946 -8911346 722452 4397630071921 -4397629596460 475458 4397629596462 519335 -509382 43013 4397637897122 8334191 -145512 163185 -17361 -8334505 8356842 -8356840 4397629502609 -2783697 2783697 -85360 4397636780593 -74 288223780706293376 1113943 -1114193 475460 -475460 -8343670 -4397629562542 4397637751221 145512 4397638437802 -17360 -4397638433739 4397630081873 -9056640 8334193 17361 -8351863 8356839 -4397638442779 -109037 51035 386162980 3318880 4397629536740 14195 4397638415414 -627311 569310 -569311 -2773744 2773744 -4397637162128 516233 -722445 -7090209 -4397629555688 4397629555686 -182577 -439597 -45816 -4397629974704 -107170 509382 4063 22650 17360 -8188681 8334192 17673 -8356842 722450 -2773743 4397629359426 -4397628833240 4397636645895 326804 -473519 288228178336365289 -288223780703290991 288223780703290991 -288223780697958847 288221580088180856 -4398019018540 -7090212 8188906 -4397637744589 4397629555685 -4397629889341 4397629889342 -4397630036059 -97217 -9952 -4397629562543 -4397638420128 4397638420128 17674 4977 -4397638438715 145824 8351866 388946857 4397629363489 -569310 2773743 509381 -326804 -567964 -288228178725312169 4398019018613 7090140 -7090213 8911349 -8188904 -4397629555686 4397629555687 -4397629974703 4397629974704 -4397630071921 439597 -4397630081874 4397637896733 -4397638433738 -17674 313 4397637930654 9481 -4397637905314 4397637887954 -8334504 -168161 -389481860 388932662 -8356845 -4397630085933 641326 4397629974703 4397637906213 4397638274616 -4397638420129 4397638416065 4397638429609 -4397637785143 -4397637905251 4397637887890 -8356841 8188681 4 4397629553644 -4397638416065 4397638416066 -2783696 9952 -4397636780593 4397633038436 -1113945 -288228178725312162 288228178726425899 -1113734 -254 -288223780706293302 8188907 -8188906 7812662 -7812652 7 722445 -45815 -4063 -4397638274617 -4397637930654 4397637930655 -4397637905315 4397637910291 -4397638415414 -14195 -4397638437800 532289 4397637888151 -4397638416361 4397638438698 1167593 73 -72 -4398019018542 7812652 8188903 -4397638078245 97217 -4397629562539 -509380 -8334193 8334505 -8351864 8356840 -13169 4397638420441 -4397637953304 4397637948328 4397637905251 -4397637742329 -532291 545118 -545135 22649 -22337 4397630081874 4397629349473 -4397628840089 4397636300222 4397637984047 -4397637886831 1113938 8911346 -4397638437801 4397638437800 -4397638437802 8334503 -4397630085936 -4397629444614 583325 4397637846284 -3301972 2769681 -4397629359423 526186 182576 4397637801471 -4397637474667 4397632977082 -567717 571401 -571398 550256 -550005 1113733 -1113732 1113732 -1113735 1113939 -1113940 4398027207447 -8334503 -641325 4397629502614 -4397629502613 -532288 -4397628831196 4397637788284 -4397637897321 -389464956 -4397641044299 4397636830507 1589622 -4397507459676 4397507437339 -4397632855619 133752788 9 -133752798 4397632133170 -6 -4397498380360 -133752803 -388932536 386162855 4397631782986 -4397628181080 -342355 333941 -3593494 3601908 -8413 4397639593706 -4397635992223 424 -3593558 3585144 8413 -424 -3601481 3601480 -7989 8412 4397628531257 -4397629363483 4397638274618 -4397641044294 4397641189806 -8351868 -4397632133159 2769676 -4398018296024 4398025756560 383785 -4397636566485 4397636182700 -6738090 -4397629596064 4397637939738 -4397637846284 -93454 4397629596064 -4397629596067 -3259550 6549 -6744639 -4397632855617 4397632855617 -722447 -4397632133170 530248 -530247 530253 4397629555682 133700321 4397499155296 -4397629477783 4397629477784 -4398019018598 4398018296150 -4397638429609 4397637887839 -4397638416049 -17 -8334508 -3353005 2783694 4397638415595 4397630085936 722451 641324 -4397629553650 4081 579245 -34127 -549197 -4397632855618 -7812658 -4397637801471 -182576 509380 -61354 -1142572 567964 574608 -1142322 -567709 571394 1113734 -1113733 -1113736 -4397637897058 4397637742066 -4398018296150 4398019018598 -4397630071744 4397629349293 -2769681 -4397629359427 4397637172082 -4397636686669 -4397629166896 4397629166893 4397637886831 -567714 571398 -571399 550001 -550002 1113735 253 4397629562540 -4397629596465 -4397638425548 4397638270556 -4398019018601 -532290 -16910 -2773760 -4397637172082 516234 -6852 550007 -1113729 1113730 1113940 252 -4397630081877 4397638260601 -4397638270555 -4061 523396 4397637896732 8911129 386162982 3318878 4397629444609 -2773742 2773742 -1113944 45816 -35863 4397629562543 9056640 -8334190 -4397638420442 4397638442778 -8356839 -51037 4397632855618 4397637880411 569311 -579264 -2773741 288223780697958847 -7090210 8188904 -4397638270554 -389464952 -4397629536741 -535003 2783695 473519 -412164 -255 254 8188905 4397629889343 -4397630036058 4397630036059 378242 -4397630081872 4397637887641 -312 8356841 4397632855619 16908 4397638429610 8334190 -4397637801453 4397629889341 4397629562542 4397638433738 -17673 -4397637905250 4397629553386 -288228178725312164 288228178725312170 -288223780699203416 288223780699203413 -288223780706293375 -4397629166889 4397629166899 -4397629974702 419016 -4397628831200 -4397638274616 4397638420127 4397638433722 -6744534 1113737 -288228178725311915 7090212 -7812662 4397629562539 4397637887577 16904 -16908 4397638416361 146715 4397636633878 4397637905314 -528214 545135 4397637870930 6852 35861 -571401 -550001 -251 485411 -4397629553385 -4397628874011 192530 571648 -571393 550002 -4397629349293 -14196 -4397629553644 1113731 -4397630071923 4397638406112 4397637785143 -4397638270556 4397638416068 
Potential of Offsets elements: 1050.4 1022.4 1224.4 28.4026 28.4026 248.403 149.403 196.403 82.4026 28.4026 28.4026 28.4026 28.4026 28.4026 28.4026 28.4026 28.4026 28.4026 28.4026 28.4026 28.4026 28.4026 28.4026 28.4026 28.4026 28.4026 28.4026 28.4026 28.4026 756.403 1831.11 28.4026 28.4026 28.4026 28.4026 28.4026 28.4026 28.4026 28.4026 28.4026 28.4026 28.4026 28.4026 29.4026 28.4026 28.4026 28.4026 28.4026 28.4026 28.4026 28.4026 28.4026 28.4026 28.4026 28.4026 28.4026 28.4026 28.4026 28.4026 28.4026 28.4026 28.4026 28.4026 28.4026 28.4026 28.4026 28.4026 28.4026 1011.4 28.4026 28.4026 28.4026 28.4026 28.4026 56.4026 28.4026 28.4026 28.4026 28.4026 28.4026 33.4026 46.4026 82.4026 70.4026 28.4026 28.4026 40.4026 37.4026 28.4026 1549.44 28.4026 28.4026 29.4026 28.4026 79.4026 82.4026 83.4026 392.403 37.4026 39.4026 46.4026 49.4026 70.4026 118.403 180.403 44.4026 28.4026 28.4026 28.4026 28.4026 28.4026 28.4026 28.4026 28.4026 28.4026 28.4026 28.4026 28.4026 28.4026 28.4026 28.4026 28.4026 28.4026 37.4026 28.4026 28.4026 28.4026 28.4026 28.4026 28.4026 28.4026 28.4026 28.4026 360.403 28.4026 28.4026 28.4026 28.4026 28.4026 28.4026 28.4026 28.4026 28.4026 28.4026 28.4026 28.4026 28.4026 28.4026 28.4026 28.4026 46.4026 28.4026 28.4026 28.4026 28.4026 30.4026 28.4026 28.4026 28.4026 28.4026 32.4026 36.4026 62.4026 28.4026 38.4026 479.403 236.403 348.403 73.4026 199.403 241.403 364.403 171.403 40.4026 46.4026 149.403 28.4026 154.403 70.4026 56.4026 88.4026 94.4026 118.403 28.4026 28.4026 28.4026 28.4026 28.4026 28.4026 28.4026 28.4026 28.4026 28.4026 28.4026 28.4026 28.4026 28.4026 28.4026 28.4026 28.4026 28.4026 28.4026 28.4026 28.4026 28.4026 28.4026 28.4026 28.4026 28.4026 28.4026 28.4026 28.4026 28.4026 28.4026 28.4026 28.4026 35.4026 28.4026 28.4026 28.4026 28.4026 28.4026 28.4026 28.4026 28.4026 28.4026 28.4026 29.4026 28.4026 28.4026 28.4026 28.4026 28.4026 28.4026 28.4026 28.4026 28.4026 28.4026 28.4026 28.4026 28.4026 28.4026 76.4026 28.4026 28.4026 28.4026 28.4026 28.4026 133.403 130.403 212.403 58.4026 113.403 42.4026 28.4026 28.4026 28.4026 88.4026 118.403 76.4026 244.403 149.403 208.403 198.403 248.403 336.403 292.403 330.403 28.4026 236.403 103.403 53.4026 44.4026 28.4026 28.4026 28.4026 82.4026 50.4026 58.4026 34.4026 30.4026 28.4026 28.4026 28.4026 28.4026 28.4026 28.4026 28.4026 28.4026 28.4026 28.4026 28.4026 28.4026 28.4026 28.4026 28.4026 28.4026 28.4026 28.4026 28.4026 28.4026 28.4026 28.4026 28.4026 28.4026 28.4026 28.4026 28.4026 28.4026 28.4026 28.4026 28.4026 28.4026 28.4026 28.4026 28.4026 28.4026 28.4026 28.4026 28.4026 45.4026 28.4026 28.4026 28.4026 28.4026 28.4026 30.4026 28.4026 28.4026 28.4026 28.4026 28.4026 28.4026 28.4026 28.4026 28.4026 28.4026 28.4026 28.4026 28.4026 28.4026 28.4026 28.4026 379.403 28.4026 28.4026 28.4026 28.4026 37.4026 28.4026 28.4026 28.4026 28.4026 28.4026 47.4026 112.403 124.403 40.4026 46.4026 64.4026 46.4026 170.403 28.4026 28.4026 28.4026 82.4026 127.403 149.403 60.4026 40.4026 55.4026 88.4026 94.4026 84.4026 73.4026 64.4026 35.4026 28.4026 30.4026 34.4026 28.4026 28.4026 28.4026 28.4026 28.4026 28.4026 28.4026 28.4026 28.4026 28.4026 28.4026 28.4026 28.4026 28.4026 28.4026 28.4026 28.4026 28.4026 28.4026 28.4026 29.4026 28.4026 28.4026 28.4026 28.4026 28.4026 28.4026 28.4026 28.4026 28.4026 28.4026 28.4026 28.4026 28.4026 28.4026 28.4026 28.4026 28.4026 28.4026 28.4026 28.4026 28.4026 28.4026 28.4026 28.4026 38.4026 28.4026 28.4026 28.4026 28.4026 28.4026 28.4026 28.4026 28.4026 28.4026 28.4026 28.4026 37.4026 28.4026 28.4026 28.4026 28.4026 82.4026 28.4026 28.4026 28.4026 28.4026 28.4026 28.4026 28.4026 28.4026 28.4026 28.4026 28.4026 83.4026 28.4026 28.4026 329.403 28.4026 28.4026 28.4026 28.4026 28.4026 28.4026 28.4026 28.4026 28.4026 28.4026 28.4026 28.4026 28.4026 28.4026 28.4026 28.4026 28.4026 28.4026 28.4026 28.4026 34.4026 28.4026 28.4026 28.4026 116.403 28.4026 28.4026 268.403 28.4026 28.4026 28.4026 28.4026 28.4026 28.4026 28.4026 63.4026 28.4026 28.4026 76.4026 28.4026 28.4026 28.4026 28.4026 28.4026 28.4026 28.4026 28.4026 28.4026 28.4026 28.4026 28.4026 28.4026 28.4026 28.4026 28.4026 28.4026 28.4026 28.4026 28.4026 28.4026 28.4026 28.4026 203.403 28.4026 28.4026 28.4026 28.4026 28.4026 28.4026 28.4026 28.4026 28.4026 28.4026 28.4026 28.4026 28.4026 28.4026 28.4026 28.4026 28.4026 28.4026 28.4026 28.4026 28.4026 28.4026 28.4026 28.4026 28.4026 28.4026 28.4026 28.4026 28.4026 28.4026 28.4026 28.4026 28.4026 28.4026 28.4026 28.4026 28.4026 28.4026 28.4026 28.4026 28.4026 28.4026 28.4026 28.4026 28.4026 28.4026 28.4026 28.4026 28.4026 28.4026 28.4026 28.4026 28.4026 28.4026 28.4026 28.4026 28.4026 28.4026 28.4026 28.4026 28.4026 28.4026 28.4026 28.4026 28.4026 28.4026 28.4026 28.4026 28.4026 28.4026 28.4026 28.4026 28.4026 28.4026 28.4026 28.4026 28.4026 28.4026 28.4026 28.4026 28.4026 28.4026 28.4026 28.4026 28.4026 28.4026 28.4026 161.403 28.4026 28.4026 28.4026 28.4026 28.4026 28.4026 28.4026 28.4026 28.4026 28.4026 28.4026 28.4026 70.4026 116.403 28.4026 28.4026 28.4026 28.4026 28.4026 28.4026 28.4026 71.4026 28.4026 28.4026 28.4026 28.4026 28.4026 28.4026 28.4026 28.4026 28.4026 604.403 28.4026 28.4026 28.4026 28.4026 28.4026 28.4026 28.4026 28.4026 28.4026 28.4026 28.4026 28.4026 28.4026 28.4026 115.403 28.4026 28.4026 28.4026 28.4026 28.4026 28.4026 35.4026 28.4026 28.4026 61.4026 64.4026 46.4026 36.4026 28.4026 28.4026 28.4026 32.4026 70.4026 28.4026 29.4026 103.403 28.4026 28.4026 28.4026 28.4026 28.4026 28.4026 28.4026 28.4026 28.4026 28.4026 28.4026 28.4026 28.4026 28.4026 28.4026 28.4026 
rewards of Offsets elements: 1022 994 1196 0 0 220 121 168 54 0 0 0 0 0 0 0 0 0 0 0 0 0 0 0 0 0 0 0 0 728 1831 0 0 0 0 0 0 0 0 0 0 0 0 1 0 0 0 0 0 0 0 0 0 0 0 0 0 0 0 0 0 0 0 0 0 0 0 0 983 0 0 0 0 0 28 0 0 0 0 0 5 18 54 42 0 0 12 9 0 1546 0 0 1 0 51 54 55 364 9 11 18 21 42 90 152 16 0 0 0 0 0 0 0 0 0 0 0 0 0 0 0 0 0 9 0 0 0 0 0 0 0 0 0 332 0 0 0 0 0 0 0 0 0 0 0 0 0 0 0 0 18 0 0 0 0 2 0 0 0 0 4 8 34 0 10 451 208 320 45 171 213 336 143 12 18 121 0 126 42 28 60 66 90 0 0 0 0 0 0 0 0 0 0 0 0 0 0 0 0 0 0 0 0 0 0 0 0 0 0 0 0 0 0 0 0 0 7 0 0 0 0 0 0 0 0 0 0 1 0 0 0 0 0 0 0 0 0 0 0 0 0 0 48 0 0 0 0 0 105 102 184 30 85 14 0 0 0 60 90 48 216 121 180 170 220 308 264 302 0 208 75 25 16 0 0 0 54 22 30 6 2 0 0 0 0 0 0 0 0 0 0 0 0 0 0 0 0 0 0 0 0 0 0 0 0 0 0 0 0 0 0 0 0 0 0 0 0 0 0 0 17 0 0 0 0 0 2 0 0 0 0 0 0 0 0 0 0 0 0 0 0 0 0 351 0 0 0 0 9 0 0 0 0 0 19 84 96 12 18 36 18 142 0 0 0 54 99 121 32 12 27 60 66 56 45 36 7 0 2 6 0 0 0 0 0 0 0 0 0 0 0 0 0 0 0 0 0 0 0 0 1 0 0 0 0 0 0 0 0 0 0 0 0 0 0 0 0 0 0 0 0 0 0 0 0 10 0 0 0 0 0 0 0 0 0 0 0 9 0 0 0 0 54 0 0 0 0 0 0 0 0 0 0 0 55 0 0 301 0 0 0 0 0 0 0 0 0 0 0 0 0 0 0 0 0 0 0 0 6 0 0 0 88 0 0 240 0 0 0 0 0 0 0 35 0 0 48 0 0 0 0 0 0 0 0 0 0 0 0 0 0 0 0 0 0 0 0 0 0 0 175 0 0 0 0 0 0 0 0 0 0 0 0 0 0 0 0 0 0 0 0 0 0 0 0 0 0 0 0 0 0 0 0 0 0 0 0 0 0 0 0 0 0 0 0 0 0 0 0 0 0 0 0 0 0 0 0 0 0 0 0 0 0 0 0 0 0 0 0 0 0 0 0 0 0 0 0 0 0 0 0 0 0 0 0 0 0 0 133 0 0 0 0 0 0 0 0 0 0 0 0 42 88 0 0 0 0 0 0 0 43 0 0 0 0 0 0 0 0 0 576 0 0 0 0 0 0 0 0 0 0 0 0 0 0 87 0 0 0 0 0 0 7 0 0 33 36 18 8 0 0 0 4 42 0 1 75 0 0 0 0 0 0 0 0 0 0 0 0 0 0 0 0 Printing Sanity3
offset_index value693
offset list size693
reward size693
potential size693
-----------------------------------------------------------------------------------------------------------------------------------------------------------------------------------------------------

DRAM Statistics
 CHANNEL 0
 RQ ROW_BUFFER_HIT:      46020  ROW_BUFFER_MISS:     240658
 DBUS_CONGESTED:         49
 WQ ROW_BUFFER_HIT:      20820  ROW_BUFFER_MISS:     183533  FULL:          0

 AVG_CONGESTED_CYCLE: 4
 All warmup complete: 2
Channel 0 Bank busy for read cycles: 0
Channel 0 Bank busy for write cycles: 0
Channel 0
Rank 0
0banks busy for read cycles: 449209958
0banks busy for write cycles: 119571
1banks busy for read cycles: 23952906
1banks busy for write cycles: 16149752
2banks busy for read cycles: 4376493
2banks busy for write cycles: 3361379
3banks busy for read cycles: 787678
3banks busy for write cycles: 1042913
4banks busy for read cycles: 398911
4banks busy for write cycles: 582029
5banks busy for read cycles: 159531
5banks busy for write cycles: 355666
6banks busy for read cycles: 43770
6banks busy for write cycles: 260487
7banks busy for read cycles: 37917
7banks busy for write cycles: 209337
8banks busy for read cycles: 53023
8banks busy for write cycles: 246798

CPU 0 Branch Prediction Accuracy: 99.7971% MPKI: 0.38142 Average ROB Occupancy at Mispredict: 32.1484
Branch types
NOT_BRANCH: 162402337 81.2012%
BRANCH_DIRECT_JUMP: 1753351 0.876676%
BRANCH_INDIRECT: 11709257 5.85463%
BRANCH_CONDITIONAL: 17378505 8.68925%
BRANCH_DIRECT_CALL: 2659359 1.32968%
BRANCH_INDIRECT_CALL: 715231 0.357615%
BRANCH_RETURN: 3381640 1.69082%
BRANCH_OTHER: 0 0%

DRAM PAGES: 1048576
Allocated PAGES: 5910
