
*** ChampSim Multicore Out-of-Order Simulator ***

Warmup Instructions: 50000000
Simulation Instructions: 200000000
Number of CPUs: 1
LLC sets: 2048
LLC ways: 16
Off-chip DRAM Size: 4096 MB Channels: 1 Width: 64-bit Data Rate: 6400 MT/s
CPU 0 runs traces/spec2k17/server_004.champsimtrace.xz
.xz
BTB has LRU replacement policy
ITLB has LRU replacement policy
DTLB has LRU replacement policy
STLB has LRU replacement policy
L1I has LRU replacement policy
L1D has LRU replacement policy
Initialize SRRIP state for L2C
Initialize DRRIP state for LLC
Offsets elements: 
Potential of Offsets elements: 
rewards of Offsets elements: 
Printing Sanity1
offset list size891
Offsets elements: 
Potential of Offsets elements: 
rewards of Offsets elements: 0 0 0 0 0 0 0 0 1615 0 0 949 0 0 0 0 0 0 0 6163 0 0 0 0 0 0 0 0 0 0 0 0 0 0 0 0 1 0 0 0 0 0 0 0 0 0 0 642 0 0 0 0 0 0 0 0 0 0 0 0 0 0 0 0 0 0 0 0 0 0 0 0 0 0 0 0 0 0 0 0 0 0 0 0 0 0 0 0 0 0 0 1031 0 0 0 0 0 0 0 0 0 0 0 0 0 0 0 0 1047 0 0 0 0 0 6 0 39 77 0 0 0 0 0 0 0 0 0 0 0 0 0 0 0 0 0 0 0 0 0 0 0 9 0 44 0 0 0 0 0 0 0 0 0 0 0 0 0 0 0 0 0 0 0 0 0 0 0 238 0 0 144 132 0 80 35 0 0 0 0 0 0 0 0 0 0 7 24 27 21 85 36 16 2 0 0 11 5 90 12 9 20 96 90 4 15 36 48 80 100 82 120 40 66 250 144 180 66 135 132 0 0 0 4 2 0 0 0 0 0 0 0 0 0 0 0 0 0 0 0 0 0 0 0 0 0 0 0 0 0 0 0 0 0 18 50 324 96 195 160 121 300 0 0 0 0 2 0 0 0 745 0 0 0 0 0 0 0 0 0 0 0 0 0 507 0 0 0 0 0 0 0 0 0 0 0 0 0 0 0 0 0 0 0 0 0 0 0 0 0 0 0 0 0 0 0 0 0 0 0 0 0 0 0 0 0 0 0 0 0 0 0 0 0 0 0 0 0 0 0 0 0 0 0 0 0 0 0 0 0 0 0 0 0 0 9 0 0 0 0 0 0 0 0 10 20 0 0 0 0 0 0 0 0 0 0 0 0 0 0 0 0 0 0 0 0 0 0 0 0 0 0 0 0 0 0 0 0 0 0 0 0 0 0 0 0 0 0 0 0 0 0 0 0 0 0 0 0 0 0 0 0 0 0 0 0 0 0 0 0 0 0 0 0 0 0 0 0 0 0 0 0 0 0 0 0 0 0 0 0 0 0 0 0 0 0 0 0 43 0 0 0 0 0 0 2 0 0 102 0 0 0 0 0 0 0 0 0 0 0 0 0 0 0 0 0 0 0 0 0 0 0 0 0 0 0 0 0 0 0 52 0 0 0 0 0 0 0 0 0 0 0 0 0 140 72 40 33 20 9 0 0 0 1 0 0 0 0 0 0 0 0 0 10 33 45 48 15 238 109 42 42 0 0 60 36 16 18 9 9 4 0 0 0 33 54 56 3 8 84 78 12 30 105 135 48 57 0 116 0 0 0 0 0 0 0 0 0 0 0 0 0 0 0 0 0 0 0 0 0 0 0 0 0 0 0 0 0 0 0 0 0 0 0 0 0 0 0 0 0 0 0 0 0 0 0 0 0 0 0 16 0 0 0 0 0 0 0 0 0 0 0 0 0 0 0 0 0 0 0 0 0 0 0 0 0 0 0 0 0 0 0 0 0 0 0 0 0 0 0 0 0 0 0 0 0 0 0 0 0 0 0 0 0 0 0 0 0 0 0 0 0 0 0 0 0 0 0 216 0 0 0 0 0 0 0 0 0 0 0 0 0 0 0 0 0 3 0 0 0 0 0 0 0 14 0 0 12 0 0 0 0 0 0 0 0 0 0 0 0 0 0 0 0 0 0 0 0 313 108 0 38 0 0 0 0 0 0 0 0 0 0 51 0 0 0 0 298 0 0 0 0 3 0 0 0 0 0 0 0 0 0 0 0 0 0 0 0 0 0 0 0 0 0 1 0 0 0 0 0 0 0 3 0 0 0 0 0 0 203 0 0 0 67 0 55 12 0 0 0 0 0 0 0 0 0 0 0 0 0 0 0 0 0 0 0 0 0 297 0 0 0 0 0 0 0 0 0 0 0 0 0 0 0 2 0 0 0 0 0 0 0 0 0 340 0 0 0 0 0 0 0 0 0 0 0 0 0 14 18 2 0 0 0 0 0 0 0 0 0 0 89 3 0 0 0 0 0 0 0 57 0 
Printing Sanity2
Heartbeat CPU 0 instructions: 10000001 cycles: 2816442 heartbeat IPC: 3.55058 cumulative IPC: 3.55058 (Simulation time: 0 hr 0 min 21 sec) 
Heartbeat CPU 0 instructions: 20000001 cycles: 5656234 heartbeat IPC: 3.52138 cumulative IPC: 3.53592 (Simulation time: 0 hr 0 min 43 sec) 
Heartbeat CPU 0 instructions: 30000000 cycles: 9913056 heartbeat IPC: 2.34917 cumulative IPC: 3.02631 (Simulation time: 0 hr 1 min 13 sec) 
Heartbeat CPU 0 instructions: 40000003 cycles: 13297031 heartbeat IPC: 2.95511 cumulative IPC: 3.00819 (Simulation time: 0 hr 1 min 38 sec) 
Heartbeat CPU 0 instructions: 50000000 cycles: 16111581 heartbeat IPC: 3.55296 cumulative IPC: 3.10336 (Simulation time: 0 hr 1 min 59 sec) 

Warmup complete CPU 0 instructions: 50000004 cycles: 16111582 (Simulation time: 0 hr 1 min 59 sec) 

Heartbeat CPU 0 instructions: 60000003 cycles: 41348811 heartbeat IPC: 0.39624 cumulative IPC: 0.39624 (Simulation time: 0 hr 2 min 33 sec) 
Heartbeat CPU 0 instructions: 70000002 cycles: 66522011 heartbeat IPC: 0.397248 cumulative IPC: 0.396743 (Simulation time: 0 hr 3 min 7 sec) 
Heartbeat CPU 0 instructions: 80000002 cycles: 99529314 heartbeat IPC: 0.302963 cumulative IPC: 0.359636 (Simulation time: 0 hr 3 min 48 sec) 
Heartbeat CPU 0 instructions: 90000002 cycles: 133008974 heartbeat IPC: 0.298689 cumulative IPC: 0.34218 (Simulation time: 0 hr 4 min 30 sec) 
Heartbeat CPU 0 instructions: 100000002 cycles: 159948675 heartbeat IPC: 0.371199 cumulative IPC: 0.347615 (Simulation time: 0 hr 5 min 3 sec) 
*** Reached end of trace for Core: 0 Repeating trace: traces/spec2k17/server_004.champsimtrace.xz
Heartbeat CPU 0 instructions: 110000000 cycles: 184940587 heartbeat IPC: 0.400129 cumulative IPC: 0.355389 (Simulation time: 0 hr 5 min 37 sec) 
Heartbeat CPU 0 instructions: 120000000 cycles: 209469897 heartbeat IPC: 0.407676 cumulative IPC: 0.362022 (Simulation time: 0 hr 6 min 11 sec) 
Heartbeat CPU 0 instructions: 130000000 cycles: 243480293 heartbeat IPC: 0.294028 cumulative IPC: 0.351851 (Simulation time: 0 hr 6 min 52 sec) 
Heartbeat CPU 0 instructions: 140000002 cycles: 276335047 heartbeat IPC: 0.30437 cumulative IPC: 0.345857 (Simulation time: 0 hr 7 min 34 sec) 
Heartbeat CPU 0 instructions: 150000003 cycles: 301557473 heartbeat IPC: 0.396473 cumulative IPC: 0.350329 (Simulation time: 0 hr 8 min 8 sec) 
Heartbeat CPU 0 instructions: 160000000 cycles: 326545361 heartbeat IPC: 0.400194 cumulative IPC: 0.354343 (Simulation time: 0 hr 8 min 42 sec) 
Heartbeat CPU 0 instructions: 170000001 cycles: 351481850 heartbeat IPC: 0.401019 cumulative IPC: 0.357813 (Simulation time: 0 hr 9 min 16 sec) 
Heartbeat CPU 0 instructions: 180000000 cycles: 380961285 heartbeat IPC: 0.339219 cumulative IPC: 0.356311 (Simulation time: 0 hr 9 min 55 sec) 
Heartbeat CPU 0 instructions: 190000000 cycles: 417725241 heartbeat IPC: 0.272006 cumulative IPC: 0.348594 (Simulation time: 0 hr 10 min 40 sec) 
Heartbeat CPU 0 instructions: 200000000 cycles: 444432993 heartbeat IPC: 0.374423 cumulative IPC: 0.350204 (Simulation time: 0 hr 11 min 13 sec) 
*** Reached end of trace for Core: 0 Repeating trace: traces/spec2k17/server_004.champsimtrace.xz
Heartbeat CPU 0 instructions: 210000000 cycles: 469459432 heartbeat IPC: 0.399577 cumulative IPC: 0.35293 (Simulation time: 0 hr 11 min 47 sec) 
Heartbeat CPU 0 instructions: 220000000 cycles: 494231996 heartbeat IPC: 0.403672 cumulative IPC: 0.355559 (Simulation time: 0 hr 12 min 21 sec) 
Heartbeat CPU 0 instructions: 230000000 cycles: 524549553 heartbeat IPC: 0.329842 cumulative IPC: 0.354025 (Simulation time: 0 hr 12 min 58 sec) 
Heartbeat CPU 0 instructions: 240000002 cycles: 560837284 heartbeat IPC: 0.275575 cumulative IPC: 0.348799 (Simulation time: 0 hr 13 min 45 sec) 
Heartbeat CPU 0 instructions: 250000001 cycles: 586045955 heartbeat IPC: 0.396689 cumulative IPC: 0.350918 (Simulation time: 0 hr 14 min 19 sec) 
Finished CPU 0 instructions: 200000001 cycles: 569934374 cumulative IPC: 0.350918 (Simulation time: 0 hr 14 min 19 sec) 

ChampSim completed all CPUs

Region of Interest Statistics

CPU 0 cumulative IPC: 0.350918 instructions: 200000001 cycles: 569934374
ITLB TOTAL     ACCESS:   36035343  HIT:   35378968  MISS:     656375  HIT %:    98.1785  MISS %:    1.82148   MPKI: 3.28187
ITLB LOAD TRANSLATION ACCESS:   36035343  HIT:   35378968  MISS:     656375  HIT %:    98.1785  MISS %:    1.82148   MPKI: 3.28187
ITLB PREFETCH  REQUESTED:          0  ISSUED:          0  USEFUL:          0  USELESS:          0
ITLB USEFUL LOAD PREFETCHES:          0 PREFETCH ISSUED TO LOWER LEVEL:          0  ACCURACY: -nan
ITLB TIMELY PREFETCHES:          0 LATE PREFETCHES: 0 DROPPED PREFETCHES: 0
ITLB PREFETCHES SAME FILL-ORIGIN LEVEL: 0 DIFFERENT FILL-ORIGIN LEVEL: 0
ITLB AVERAGE MISS LATENCY: 16.6753 cycles
ITLB RQ	ACCESS:   41929112	FORWARD:          0	MERGED:    5740917	TO_CACHE:   36188195

DTLB TOTAL     ACCESS:   42338015  HIT:   36269272  MISS:    6068743  HIT %:     85.666  MISS %:     14.334   MPKI: 30.3437
DTLB LOAD TRANSLATION ACCESS:   42338015  HIT:   36269272  MISS:    6068743  HIT %:     85.666  MISS %:     14.334   MPKI: 30.3437
DTLB PREFETCH  REQUESTED:          0  ISSUED:          0  USEFUL:          0  USELESS:          0
DTLB USEFUL LOAD PREFETCHES:          0 PREFETCH ISSUED TO LOWER LEVEL:          0  ACCURACY: -nan
DTLB TIMELY PREFETCHES:          0 LATE PREFETCHES: 0 DROPPED PREFETCHES: 0
DTLB PREFETCHES SAME FILL-ORIGIN LEVEL: 0 DIFFERENT FILL-ORIGIN LEVEL: 0
DTLB AVERAGE MISS LATENCY: 11.0506 cycles
DTLB RQ	ACCESS:   55608251	FORWARD:          0	MERGED:   13109625	TO_CACHE:   42498626

STLB TOTAL     ACCESS:   35836279  HIT:   35429156  MISS:     407123  HIT %:    98.8639  MISS %:    1.13606   MPKI: 2.03561
STLB LOAD TRANSLATION ACCESS:    6725118  HIT:    6323801  MISS:     401317  HIT %:    94.0326  MISS %:    5.96743   MPKI: 2.00658
STLB TRANSLATION FROM L1D PREFETCHER ACCESS:   29111161  HIT:   29105355  MISS:       5806  HIT %:    99.9801  MISS %:  0.0199442   MPKI: 0.02903
STLB PREFETCH  REQUESTED:          0  ISSUED:          0  USEFUL:       5238  USELESS:        567
STLB USEFUL LOAD PREFETCHES:       5238 PREFETCH ISSUED TO LOWER LEVEL:          0  ACCURACY: inf
STLB TIMELY PREFETCHES:       5238 LATE PREFETCHES: 588 DROPPED PREFETCHES: 60209
STLB PREFETCHES SAME FILL-ORIGIN LEVEL: 0 DIFFERENT FILL-ORIGIN LEVEL: 0
STLB AVERAGE MISS LATENCY: 43.3385 cycles
STLB RQ	ACCESS:   42673941	FORWARD:          0	MERGED:    6776496	TO_CACHE:   35897445

STLB Hit, L1D data hit: 0
STLB Hit, L2C data hit: 0
STLB Hit, LLC data hit: 0
STLB Hit, LLC data miss: 0
STLB STLB hints to L2: 0
L1D TOTAL     ACCESS:   90611517  HIT:   74328542  MISS:   16282975  HIT %:    82.0299  MISS %:    17.9701   MPKI: 81.4149
L1D LOAD      ACCESS:   36717241  HIT:   28687144  MISS:    8030097  HIT %:    78.1299  MISS %:    21.8701   MPKI: 40.1505
L1D RFO       ACCESS:   18347532  HIT:   17928500  MISS:     419032  HIT %:    97.7161  MISS %:    2.28386   MPKI: 2.09516
L1D PREFETCH  ACCESS:   35546744  HIT:   27712898  MISS:    7833846  HIT %:    77.9618  MISS %:    22.0382   MPKI: 39.1692
AGUS PREFETCH L1 MISS: 0
L1D PREFETCH  REQUESTED:   72739790  ISSUED:   72739365  USEFUL:     450621  USELESS:    7383233
L1D USEFUL LOAD PREFETCHES:     450621 PREFETCH ISSUED TO LOWER LEVEL:    7891335  ACCURACY: 5.71033
L1D TIMELY PREFETCHES:     450621 LATE PREFETCHES: 53578 DROPPED PREFETCHES: 60209
L1D PREFETCHES SAME FILL-ORIGIN LEVEL: 7891335 DIFFERENT FILL-ORIGIN LEVEL: 0
L1D AVERAGE MISS LATENCY: 1.03337e+06 cycles
L1D RQ	ACCESS:   50329643	FORWARD:          0	MERGED:   13333361	TO_CACHE:   36790967
L1D WQ	ACCESS:   19208837	FORWARD:     236170	MERGED:     391553	TO_CACHE:   18817284
L1D PQ	ACCESS:   36790542	FORWARD:          0	MERGED:     810864	TO_CACHE:   35948823

L1D UNIQUE REGIONS ACCESSED: 0
L1D REGIONS CONFLICTS: 0
L1D Cross Page Prefetch Requests: 511525
L1D Same Page Prefetch Requests: 44711392
L1D ROI Sum of L1D PQ occupancy: 465592510
L1D PREFETCHES PUSHED FROM L2C: 0
L1I TOTAL     ACCESS:   40801518  HIT:   36834408  MISS:    3967110  HIT %:    90.2771  MISS %:    9.72295   MPKI: 19.8355
L1I LOAD      ACCESS:   40801518  HIT:   36834408  MISS:    3967110  HIT %:    90.2771  MISS %:    9.72295   MPKI: 19.8355
L1I PREFETCH  REQUESTED:          0  ISSUED:          0  USEFUL:          0  USELESS:          0
L1I USEFUL LOAD PREFETCHES:          0 PREFETCH ISSUED TO LOWER LEVEL:          0  ACCURACY: -nan
L1I TIMELY PREFETCHES:          0 LATE PREFETCHES: 0 DROPPED PREFETCHES: 0
L1I PREFETCHES SAME FILL-ORIGIN LEVEL: 0 DIFFERENT FILL-ORIGIN LEVEL: 0
L1I AVERAGE MISS LATENCY: 31.3581 cycles
L1I RQ	ACCESS:   63236516	FORWARD:          0	MERGED:   21307404	TO_CACHE:   41929112

BTB TOTAL     ACCESS:   31141352  HIT:   26161617  MISS:    4979735  HIT %:    84.0093  MISS %:    15.9907   MPKI: 24.8987
BTB BRANCH_DIRECT_JUMP	ACCESS:    2108913  HIT:    1851367  MISS:     257546
BTB BRANCH_INDIRECT	ACCESS:   15497831  HIT:   13163717  MISS:    2334114
BTB BRANCH_CONDITIONAL	ACCESS:    5913619  HIT:    5539694  MISS:     373925
BTB BRANCH_DIRECT_CALL	ACCESS:    3023382  HIT:    2531697  MISS:     491685
BTB BRANCH_INDIRECT_CALL	ACCESS:     781117  HIT:     658398  MISS:     122719
BTB BRANCH_RETURN	ACCESS:    3816490  HIT:    2416744  MISS:    1399746
BTB BRANCH_OTHER ACCESS:          0  HIT:          0  MISS:          0

L2C TOTAL     ACCESS:   21806236  HIT:   17992157  MISS:    3814079  HIT %:    82.5092  MISS %:    17.4908   MPKI: 19.0704
L2C LOAD      ACCESS:   11943609  HIT:    9402504  MISS:    2541105  HIT %:    78.7241  MISS %:    21.2759   MPKI: 12.7055
L2C DATA LOAD MPKI: 3.48642
L2C INSTRUCTION LOAD MPKI: 9.2191
L2C RFO       ACCESS:     415091  HIT:     255578  MISS:     159513  HIT %:    61.5716  MISS %:    38.4284   MPKI: 0.797565
L2C PREFETCH  ACCESS:    7891258  HIT:    7022045  MISS:     869213  HIT %:    88.9851  MISS %:    11.0149   MPKI: 4.34606
AGUS PREFETCH L1 MISS: 0
L2C DATA PREFETCH MPKI: 4.34606
L2C INSTRUCTION PREFETCH MPKI: 0
L2C WRITEBACK ACCESS:     950102  HIT:     914025  MISS:      36077  HIT %:    96.2028  MISS %:    3.79717   MPKI: 0.180385
L2C LOAD TRANSLATION ACCESS:     509106  HIT:     303687  MISS:     205419  HIT %:     59.651  MISS %:     40.349   MPKI: 1.02709
L2C TRANSLATION FROM L1D PREFETCHER ACCESS:      97070  HIT:      94318  MISS:       2752  HIT %:    97.1649  MISS %:    2.83507   MPKI: 0.01376
L2C PREFETCH  REQUESTED:          0  ISSUED:          0  USEFUL:      45446  USELESS:     826540
L2C USEFUL LOAD PREFETCHES:      45446 PREFETCH ISSUED TO LOWER LEVEL:     869213  ACCURACY: 5.22841
L2C TIMELY PREFETCHES:      45446 LATE PREFETCHES: 0 DROPPED PREFETCHES: 0
L2C PREFETCHES SAME FILL-ORIGIN LEVEL: 0 DIFFERENT FILL-ORIGIN LEVEL: 0
L2C AVERAGE MISS LATENCY: 46.8433 cycles
L2C RQ	ACCESS:   12964926	FORWARD:          0	MERGED:          0	TO_CACHE:   12964876
L2C WQ	ACCESS:     950102	FORWARD:        127	MERGED:          0	TO_CACHE:     950102
L2C PQ	ACCESS:    7891335	FORWARD:          0	MERGED:          0	TO_CACHE:    7891258

L2C Instructions Evicting Data 842351
L2C Translations Evicting Data 96763
L2C Data Evicting Data 805808
L2C Instructions Evicting Instructions 901647
L2C Translations Evicting Instructions 99258
L2C Data Evicting Instructions 825847
L2C Instructions Evicting Translations 99823
L2C Translations Evicting Translations 12150
L2C Data Evicting Translations 94355
L2C Dense regions hint from L2: 0
PSCL5 TOTAL     ACCESS:     467354  HIT:     467354  MISS:          0  HIT %:        100  MISS %:          0   MPKI: 0
PSCL5 LOAD TRANSLATION ACCESS:     400751  HIT:     400751  MISS:          0  HIT %:        100  MISS %:          0   MPKI: 0
PSCL5 TRANSLATION FROM L1D PREFETCHER ACCESS:      66603  HIT:      66603  MISS:          0  HIT %:        100  MISS %:          0   MPKI: 0
PSCL5 PREFETCH  REQUESTED:          0  ISSUED:          0  USEFUL:          0  USELESS:          0
PSCL5 USEFUL LOAD PREFETCHES:          0 PREFETCH ISSUED TO LOWER LEVEL:          0  ACCURACY: -nan
PSCL5 TIMELY PREFETCHES:          0 LATE PREFETCHES: 0 DROPPED PREFETCHES: 0
PSCL5 PREFETCHES SAME FILL-ORIGIN LEVEL: 0 DIFFERENT FILL-ORIGIN LEVEL: 0

PSCL4 TOTAL     ACCESS:     448505  HIT:     447554  MISS:        951  HIT %:     99.788  MISS %:   0.212038   MPKI: 0.004755
PSCL4 LOAD TRANSLATION ACCESS:     386895  HIT:     385944  MISS:        951  HIT %:    99.7542  MISS %:   0.245803   MPKI: 0.004755
PSCL4 TRANSLATION FROM L1D PREFETCHER ACCESS:      61610  HIT:      61610  MISS:          0  HIT %:        100  MISS %:          0   MPKI: 0
PSCL4 PREFETCH  REQUESTED:          0  ISSUED:          0  USEFUL:          0  USELESS:          0
PSCL4 USEFUL LOAD PREFETCHES:          0 PREFETCH ISSUED TO LOWER LEVEL:          0  ACCURACY: -nan
PSCL4 TIMELY PREFETCHES:          0 LATE PREFETCHES: 0 DROPPED PREFETCHES: 0
PSCL4 PREFETCHES SAME FILL-ORIGIN LEVEL: 0 DIFFERENT FILL-ORIGIN LEVEL: 0

PSCL3 TOTAL     ACCESS:     465082  HIT:     462582  MISS:       2500  HIT %:    99.4625  MISS %:    0.53754   MPKI: 0.0125
PSCL3 LOAD TRANSLATION ACCESS:     398555  HIT:     396055  MISS:       2500  HIT %:    99.3727  MISS %:   0.627266   MPKI: 0.0125
PSCL3 TRANSLATION FROM L1D PREFETCHER ACCESS:      66527  HIT:      66527  MISS:          0  HIT %:        100  MISS %:          0   MPKI: 0
PSCL3 PREFETCH  REQUESTED:          0  ISSUED:          0  USEFUL:          0  USELESS:          0
PSCL3 USEFUL LOAD PREFETCHES:          0 PREFETCH ISSUED TO LOWER LEVEL:          0  ACCURACY: -nan
PSCL3 TIMELY PREFETCHES:          0 LATE PREFETCHES: 0 DROPPED PREFETCHES: 0
PSCL3 PREFETCHES SAME FILL-ORIGIN LEVEL: 0 DIFFERENT FILL-ORIGIN LEVEL: 0

PSCL2 TOTAL     ACCESS:     438089  HIT:     331980  MISS:     106109  HIT %:    75.7791  MISS %:    24.2209   MPKI: 0.530545
PSCL2 LOAD TRANSLATION ACCESS:     401899  HIT:     295790  MISS:     106109  HIT %:    73.5981  MISS %:    26.4019   MPKI: 0.530545
PSCL2 TRANSLATION FROM L1D PREFETCHER ACCESS:      36190  HIT:      36190  MISS:          0  HIT %:        100  MISS %:          0   MPKI: 0
PSCL2 PREFETCH  REQUESTED:          0  ISSUED:          0  USEFUL:          0  USELESS:          0
PSCL2 USEFUL LOAD PREFETCHES:          0 PREFETCH ISSUED TO LOWER LEVEL:          0  ACCURACY: -nan
PSCL2 TIMELY PREFETCHES:          0 LATE PREFETCHES: 0 DROPPED PREFETCHES: 0
PSCL2 PREFETCHES SAME FILL-ORIGIN LEVEL: 0 DIFFERENT FILL-ORIGIN LEVEL: 0

LLC TOTAL     ACCESS:    4210375  HIT:    3783844  MISS:     426531  HIT %:    89.8695  MISS %:    10.1305   MPKI: 2.13265
LLC LOAD      ACCESS:    2541103  HIT:    2366010  MISS:     175093  HIT %:    93.1096  MISS %:    6.89043   MPKI: 0.875465
LLC RFO       ACCESS:     159512  HIT:     108106  MISS:      51406  HIT %:     67.773  MISS %:     32.227   MPKI: 0.25703
LLC PREFETCH  ACCESS:     869213  HIT:     689363  MISS:     179850  HIT %:    79.3089  MISS %:    20.6911   MPKI: 0.89925
AGUS PREFETCH L1 MISS: 0
LLC WRITEBACK ACCESS:     432376  HIT:     421545  MISS:      10831  HIT %:     97.495  MISS %:      2.505   MPKI: 0.054155
LLC LOAD TRANSLATION ACCESS:     205419  HIT:     196345  MISS:       9074  HIT %:    95.5827  MISS %:    4.41731   MPKI: 0.04537
LLC TRANSLATION FROM L1D PREFETCHER ACCESS:       2752  HIT:       2475  MISS:        277  HIT %:    89.9346  MISS %:    10.0654   MPKI: 0.001385
LLC PREFETCH  REQUESTED:          0  ISSUED:          0  USEFUL:      11491  USELESS:     168973
LLC USEFUL LOAD PREFETCHES:      11491 PREFETCH ISSUED TO LOWER LEVEL:     179850  ACCURACY: 6.38921
LLC TIMELY PREFETCHES:      11491 LATE PREFETCHES: 0 DROPPED PREFETCHES: 0
LLC PREFETCHES SAME FILL-ORIGIN LEVEL: 0 DIFFERENT FILL-ORIGIN LEVEL: 0
LLC AVERAGE MISS LATENCY: 153.084 cycles
LLC RQ	ACCESS:    2908789	FORWARD:          0	MERGED:          0	TO_CACHE:    2908786
LLC WQ	ACCESS:     432376	FORWARD:          3	MERGED:          0	TO_CACHE:     432376
LLC PQ	ACCESS:     869213	FORWARD:          0	MERGED:          0	TO_CACHE:     869213

LLC Dense regions hint to LLC: 0

RAW hits: 2431414
Loads Generated: 52761057
Loads sent to L1D: 50329643
Stores Generated: 19208830
Stores sent to L1D: 19208837
Major fault: 0 Minor fault: 7943
Allocated PAGES: 7943
ucb ended
-----------------------------------------------------------------------------------------------------------------------------------------------------------------------------------------------------
Offsets elements: -4397629008046 -107141 4397629115187 -4397629105267 -9923 9924 -9924 4397629105267 1 500271 4397628604994 2 -4397629115193 485380 4397628629813 -4397629105269 4397629105269 9310329 -9310327 -1 -4397629119290 4397638274625 -4397638270536 4397638416047 17673 -17360 22337 -9323498 489476 60335 4397637879806 -154992 145511 312 17361 4976 -4977 -9318522 9155336 -4976 -4397629119293 4397629363465 -4397628722122 4397628477949 -4397629119292 583331 -51041 -2 6 4397628586997 4397629119290 -4397631481916 4397631481915 -388932653 4398018051945 244173 -4397629363465 532288 -532287 532451 -518248 -10115 4397629115202 4090 528204 4397637897324 -4397637897328 -528200 4397629115201 9155335 -9318525 -4397629119287 641342 -58012 -2945956 2376644 9925 475455 -475455 510196 4397628604996 -4397629115192 4397629359368 -4397628833214 -516231 4397637162132 -4397637172052 192501 4397636633878 -4397636719238 4397629252224 -3 -4397629349441 35835 4397629854946 -4397629890782 4397633074302 5332144 -9301111 288223780708398134 -2200619250622 2200619250622 4084 -574296 570458 -566774 -21397 563866 3 24304 -249 -24399 24655 -288223780708398388 -73 244174 10 -10 -244172 244179 7812687 -8056865 -4398018051888 389462852 -333650 -182581 -9920 107141 -107144 500272 4397628604995 9155558 -9155557 475454 4397628629811 4397629115193 9310327 -4397638429617 4397629119291 -4397629115201 -4089 145512 22650 -17361 17360 4397637940141 -4397637879742 4397637724750 -9155337 9300848 244176 -244174 641343 -4397628477949 -641343 -51043 -2894919 2894914 4397628587001 -4397628586839 -389465105 388932654 -4397629105087 4397638415414 -9310326 -4397629363464 532287 -4 -528201 4397638270536 22649 -22337 -627323 569310 -569311 -2376646 475456 -485379 4397628849172 -4397637162132 516231 -192501 4397636719238 -7467014 541341 -35836 288223780704429167 -288223780699097023 288221580089147512 -4084 -570212 574296 3684 -343 24399 255 -74 244175 -4398018296059 4398018296069 7812694 -7812687 -244181 9155561 -4397638078245 333650 4397628589035 -4397629008048 9920 -485380 9310326 -4397637915325 4397637905844 -4397638420137 145824 4977 -4397638438697 4397629115199 -9481 -145512 9318522 9300847 -145511 -312 4397631481916 -532451 -388932654 4398018051944 4397629105087 -9300852 9301164 -4397638437812 4397638442786 -4397637801444 4397636645901 182581 4397636826379 -35835 -288228178726450345 4398018051957 8056796 -8056869 8911381 -9155560 -4397628922685 4397628922686 -4397628589036 4397628589037 -4397629008047 4397629008048 -9921 485376 4397638425522 -4397628604998 4397637905845 163185 -4397638433720 4397638433721 -17674 313 -9301161 -4397637887935 4397628569414 9301160 9155337 17674 4397629119293 3003967 4397637846287 4 4397636298194 -7711194 -4398027362271 388932653 4397638274626 -4397638437811 -4397637779107 -109055 158 -2895077 4397631481914 -4397631481915 133345736 9 -133345756 2362624 -4397631726089 -386569903 4398017945841 -4397631375938 2852504 342355 -3194860 3194861 4397628531224 7461370 -7461370 -4397628539633 -3186447 3194434 -3189968 3181981 7986 -3194436 3194859 4397628287051 -4397628287051 4397628531223 -4397628539632 4397637450799 -4397638420138 4397638420139 -4397640782758 3194433 4397637605998 -9323501 -4397631726079 4397639187449 -4397636824830 4397637207820 -4397637207819 -4397628873588 151466 4397628535957 -4398018051815 4398027362145 -4397640792242 4397636340703 -7711295 -4397631481913 -386569902 4398025757356 -4398025757355 389422406 4397628629408 -4397628629408 -2852505 4397631481913 7705541 -4397639187454 -4397631726090 2892875 -530251 530256 4397628589032 -4397498188640 -133293273 4397631481912 -4397628511129 4397628511130 -4397638429618 4397629119292 4397638429617 -4398018051945 388946857 4089 -2945954 4397631481909 -4397636645901 4397629890782 -4397629890781 339 24307 73 -72 -4398018051886 4398018296059 -244182 9155560 -8911381 4397629008046 -500272 4397629105266 -4397628629813 -4397629119291 4397628569477 9480 -4397629105088 9300846 -9301164 2376642 570212 24646 -4398018051884 4398018051885 72 -71 7812684 -9155559 97221 -4397637785149 4397637930660 -4397637887934 4397637870574 4397638429618 -4397638442788 -85360 35836 4397633038466 -288228178726450346 288228178726450345 -254 -288223780708398134 9155562 -1098694 -7812694 -244179 -4397628922686 -419010 -97221 -4397629105266 -4397637940141 -4397637724814 4397637870638 -4397628587003 -532290 4397638420136 -4397638433722 4397638416361 4397629115196 -9925 4397629115189 4397636816458 -6925676 -24647 340 24310 8056868 -97220 4397629115191 4397629105265 -4397628604994 -24817 -4397638416048 -4397629119288 -4397637870262 4397637887935 162 4397628586839 -4398018051944 -4397638415414 -14204 -4397638437810 -9318524 4397629349442 -4397629349444 516230 4397636300228 -4397636633878 4397629708202 -61384 24306 -24306 24649 -24309 24315 -288223780708398207 71 -4398018296069 4398018296066 -8056866 9155559 -4397637744595 -4397628604995 17672 -9318520 9301161 -13169 -4397638420136 4397638420449 -4397637953310 4397637948334 -4397637887999 4397628535959 -4397631481914 2362622 4397637742336 -4397638274626 -4397637887685 4397637887686 -4397629349445 -317692 97220 45757 247 3835 -3829 588176 -24310 24311 -24311 24308 -24653 24652 4398027207447 -8911378 8056866 -244178 9155334 154992 -9318519 4397638416360 -4397637870261 4397637870262 -145824 -244173 -4397629363466 14203 532294 -528205 579242 -583330 2366712 4397629349445 526154 -510193 250 3834 -3835 -570461 -24314 -24651 252 24654 -4398018051885 8911378 -8911388 4397628629815 -4397629115195 4397638270530 -4397638437809 -9323496 -4397637879806 4397637724814 -4398018296118 4398018051942 -14205 4397629363464 -532289 4088 51037 -50879 -2362624 -4397637172055 510193 -403052 4397629793562 566777 -588180 588179 24312 24309 253 500273 4397638415596 -4397628629816 60399 4397637879742 4397628586998 -4397628587002 -518086 4397629105088 -9066153 -4397628780134 -583331 532452 2894910 -4397629359369 4397636686676 -15958 588175 -24308 4397629105268 4397638270529 -514292 4397638420137 -4397638416047 -9318521 -9056673 8911161 -4397628477948 -389464943 -4397628535960 4397628535961 -4397628586840 -4397631726088 569311 -2366720 2876915 -24649 8911388 -4397628589038 -485376 4397638416048 -9300846 4397638442788 -4397628535961 -386570031 389464941 -4397629115202 -4088 -579234 -2376642 2366720 24648 -255 254 510197 9323498 -2366719 2376643 403052 -244109 4397628922685 9921 -4397628629811 4397628569413 9481 9323497 -168161 641344 485379 4397629008047 -4397629105268 -4397629115189 -4397629115190 4397628604998 -4397638433721 4397638433720 -17673 -4397637887998 4397629363466 -2376643 -288223780700341338 -8056796 -4397629166864 4397628589036 -4397637724750 4397637870261 -4397637742338 4397638438698 -4397638416360 4397629359365 -4397633038466 4397638370610 -163185 -4397638274625 -9301159 -4397637930660 -4397637870574 15958 -4397638420449 4397637870325 -2895075 -7812690 -528363 4397629166864 -4397628849169 566778 -588174 588180 -24313 -24654 -500271 4397637940142 -4397638270530 4397638416041 -244176 388932652 4397628587002 583330 4397628535960 -164 -2366712 2362623 -4397629359368 4397637172055 -4397637172056 -475456 317692 4397638260604 514292 -9056672 9323495 4397640792240 7711193 -4397636830485 4397638429619 -4397640637249 4397640782761 -4397507437026 4397507454700 -4398018051816 4398018295992 2852503 -2852502 133345738 -130983116 -2362622 133345746 4397505841704 -4397635992594 130150895 -130150896 4397628181078 -4397628189488 4397628539633 -4397628531646 -3186446 3194432 -3194434 3194857 -8409 8409 -8410 7987 423 -3181981 4397631477442 9310330 -4398027362145 386569905 2852502 -4397631481911 4397639187452 -4398025757356 4398018051814 244177 -244177 -2852503 2892873 -2892879 130930648 4397498188641 -4397628511130 4397637821459 -4397628831171 -6 532289 -9079322 -518274 4397637134950 -4397637144870 -4397636826379 4397629105262 785520 4397638406117 -5331816 -4397633038465 4397638370594 22336 -5349487 -3969042 9301186 -2200619139439 2200619163496 4061 -2200619144323 -13995 -9238 23232 13994 2200619140262 -4061 4094 -3845 -24648 -24400 24400 4060 -28460 -248 -2200619247998 2200619248244 10611919 -10611919 10611918 -10612164 -2200619163511 2200629775941 -10612184 -246 4083 -4083 10612165 -10608089 10608089 10611920 -10611920 509 -509 -771 10612692 -512 516 -10611921 -419332 419087 26 -423174 -95487 514574 15 2200629775926 12 -12 -10608370 10607955 -10607955 -4060 10612396 -10608336 10608372 -2200629775932 1642 2200619162099 -2200619162098 10612189 -10612189 3830 -2200619167502 2200619167491 -2200619252155 2200619252157 -506376 11114747 -10608368 20 -506400 506379 -625732 119357 -10608365 309 -309 -506380 506381 -506381 506378 -506378 -506377 506404 10608305 31 -10612396 4062 -2200618661195 2200629775721 -11114523 11114745 -11114748 -121178 81253 16 11154621 -11154621 11154653 -11154655 11154622 -11154620 11154620 -11154619 542462 -502556 -546285 11154617 -11154624 33 -11154651 11154619 -10612155 -2200619149087 2200619149088 3820 10608336 -2200629860491 2200614831582 15028909 10608337 -11154622 11154655 -33 -10612158 -542462 39906 502555 4136 -4133 3821 -506690 506690 
Potential of Offsets elements: 28.6506 28.6506 28.6506 28.6506 28.6506 28.6506 28.6506 28.6506 1615.1 28.6506 28.6506 977.651 28.6506 28.6506 28.6506 28.6506 28.6506 28.6506 28.6506 851.557 28.6506 28.6506 28.6506 28.6506 28.6506 28.6506 28.6506 28.6506 28.6506 28.6506 28.6506 28.6506 28.6506 28.6506 28.6506 28.6506 29.6506 28.6506 28.6506 28.6506 28.6506 28.6506 28.6506 28.6506 28.6506 28.6506 28.6506 670.651 28.6506 28.6506 28.6506 28.6506 28.6506 28.6506 28.6506 28.6506 28.6506 28.6506 28.6506 28.6506 28.6506 28.6506 28.6506 28.6506 28.6506 28.6506 28.6506 28.6506 28.6506 28.6506 28.6506 28.6506 28.6506 28.6506 28.6506 28.6506 28.6506 28.6506 28.6506 28.6506 28.6506 28.6506 28.6506 28.6506 28.6506 28.6506 28.6506 28.6506 28.6506 28.6506 28.6506 1059.65 28.6506 28.6506 28.6506 28.6506 28.6506 28.6506 28.6506 28.6506 28.6506 28.6506 28.6506 28.6506 28.6506 28.6506 28.6506 28.6506 1075.65 28.6506 28.6506 28.6506 28.6506 28.6506 34.6506 28.6506 67.6506 105.651 28.6506 28.6506 28.6506 28.6506 28.6506 28.6506 28.6506 28.6506 28.6506 28.6506 28.6506 28.6506 28.6506 28.6506 28.6506 28.6506 28.6506 28.6506 28.6506 28.6506 28.6506 28.6506 28.6506 37.6506 28.6506 72.6506 28.6506 28.6506 28.6506 28.6506 28.6506 28.6506 28.6506 28.6506 28.6506 28.6506 28.6506 28.6506 28.6506 28.6506 28.6506 28.6506 28.6506 28.6506 28.6506 28.6506 28.6506 28.6506 28.6506 266.651 28.6506 28.6506 172.651 160.651 28.6506 108.651 63.6506 28.6506 28.6506 28.6506 28.6506 28.6506 28.6506 28.6506 28.6506 28.6506 28.6506 35.6506 52.6506 55.6506 49.6506 113.651 64.6506 44.6506 30.6506 28.6506 28.6506 39.6506 33.6506 118.651 40.6506 37.6506 48.6506 124.651 118.651 32.6506 43.6506 64.6506 76.6506 108.651 128.651 110.651 148.651 68.6506 94.6506 278.651 172.651 208.651 94.6506 163.651 160.651 28.6506 28.6506 28.6506 32.6506 30.6506 28.6506 28.6506 28.6506 28.6506 28.6506 28.6506 28.6506 28.6506 28.6506 28.6506 28.6506 28.6506 28.6506 28.6506 28.6506 28.6506 28.6506 28.6506 28.6506 28.6506 28.6506 28.6506 28.6506 28.6506 28.6506 28.6506 28.6506 28.6506 28.6506 46.6506 78.6506 352.651 124.651 223.651 188.651 149.651 328.651 28.6506 28.6506 28.6506 28.6506 30.6506 28.6506 28.6506 28.6506 773.651 28.6506 28.6506 28.6506 28.6506 28.6506 28.6506 28.6506 28.6506 28.6506 28.6506 28.6506 28.6506 28.6506 535.651 28.6506 28.6506 28.6506 28.6506 28.6506 28.6506 28.6506 28.6506 28.6506 28.6506 28.6506 28.6506 28.6506 28.6506 28.6506 28.6506 28.6506 28.6506 28.6506 28.6506 28.6506 28.6506 28.6506 28.6506 28.6506 28.6506 28.6506 28.6506 28.6506 28.6506 28.6506 28.6506 28.6506 28.6506 28.6506 28.6506 28.6506 28.6506 28.6506 28.6506 28.6506 28.6506 28.6506 28.6506 28.6506 28.6506 28.6506 28.6506 28.6506 28.6506 28.6506 28.6506 28.6506 28.6506 28.6506 28.6506 28.6506 28.6506 28.6506 28.6506 28.6506 28.6506 28.6506 28.6506 28.6506 28.6506 28.6506 28.6506 28.6506 28.6506 37.6506 28.6506 28.6506 28.6506 28.6506 28.6506 28.6506 28.6506 28.6506 38.6506 48.6506 28.6506 28.6506 28.6506 28.6506 28.6506 28.6506 28.6506 28.6506 28.6506 28.6506 28.6506 28.6506 28.6506 28.6506 28.6506 28.6506 28.6506 28.6506 28.6506 28.6506 28.6506 28.6506 28.6506 28.6506 28.6506 28.6506 28.6506 28.6506 28.6506 28.6506 28.6506 28.6506 28.6506 28.6506 28.6506 28.6506 28.6506 28.6506 28.6506 28.6506 28.6506 28.6506 28.6506 28.6506 28.6506 28.6506 28.6506 28.6506 28.6506 28.6506 28.6506 28.6506 28.6506 28.6506 28.6506 28.6506 28.6506 28.6506 28.6506 28.6506 28.6506 28.6506 28.6506 28.6506 28.6506 28.6506 28.6506 28.6506 28.6506 28.6506 28.6506 28.6506 28.6506 28.6506 28.6506 28.6506 28.6506 28.6506 28.6506 28.6506 28.6506 28.6506 28.6506 28.6506 28.6506 28.6506 28.6506 28.6506 28.6506 28.6506 28.6506 28.6506 71.6506 28.6506 28.6506 28.6506 28.6506 28.6506 28.6506 30.6506 28.6506 28.6506 130.651 28.6506 28.6506 28.6506 28.6506 28.6506 28.6506 28.6506 28.6506 28.6506 28.6506 28.6506 28.6506 28.6506 28.6506 28.6506 28.6506 28.6506 28.6506 28.6506 28.6506 28.6506 28.6506 28.6506 28.6506 28.6506 28.6506 28.6506 28.6506 28.6506 28.6506 28.6506 80.6506 28.6506 28.6506 28.6506 28.6506 28.6506 28.6506 28.6506 28.6506 28.6506 28.6506 28.6506 28.6506 28.6506 168.651 100.651 68.6506 61.6506 48.6506 37.6506 28.6506 28.6506 28.6506 29.6506 28.6506 28.6506 28.6506 28.6506 28.6506 28.6506 28.6506 28.6506 28.6506 38.6506 61.6506 73.6506 76.6506 43.6506 266.651 137.651 70.6506 70.6506 28.6506 28.6506 88.6506 64.6506 44.6506 46.6506 37.6506 37.6506 32.6506 28.6506 28.6506 28.6506 61.6506 82.6506 84.6506 31.6506 36.6506 112.651 106.651 40.6506 58.6506 133.651 163.651 76.6506 85.6506 28.6506 144.651 28.6506 28.6506 28.6506 28.6506 28.6506 28.6506 28.6506 28.6506 28.6506 28.6506 28.6506 28.6506 28.6506 28.6506 28.6506 28.6506 28.6506 28.6506 28.6506 28.6506 28.6506 28.6506 28.6506 28.6506 28.6506 28.6506 28.6506 28.6506 28.6506 28.6506 28.6506 28.6506 28.6506 28.6506 28.6506 28.6506 28.6506 28.6506 28.6506 28.6506 28.6506 28.6506 28.6506 28.6506 28.6506 28.6506 28.6506 28.6506 28.6506 28.6506 28.6506 44.6506 28.6506 28.6506 28.6506 28.6506 28.6506 28.6506 28.6506 28.6506 28.6506 28.6506 28.6506 28.6506 28.6506 28.6506 28.6506 28.6506 28.6506 28.6506 28.6506 28.6506 28.6506 28.6506 28.6506 28.6506 28.6506 28.6506 28.6506 28.6506 28.6506 28.6506 28.6506 28.6506 28.6506 28.6506 28.6506 28.6506 28.6506 28.6506 28.6506 28.6506 28.6506 28.6506 28.6506 28.6506 28.6506 28.6506 28.6506 28.6506 28.6506 28.6506 28.6506 28.6506 28.6506 28.6506 28.6506 28.6506 28.6506 28.6506 28.6506 28.6506 28.6506 28.6506 28.6506 28.6506 28.6506 28.6506 28.6506 244.651 28.6506 28.6506 28.6506 28.6506 28.6506 28.6506 28.6506 28.6506 28.6506 28.6506 28.6506 28.6506 28.6506 28.6506 28.6506 28.6506 28.6506 31.6506 28.6506 28.6506 28.6506 28.6506 28.6506 28.6506 28.6506 42.6506 28.6506 28.6506 40.6506 28.6506 28.6506 28.6506 28.6506 28.6506 28.6506 28.6506 28.6506 28.6506 28.6506 28.6506 28.6506 28.6506 28.6506 28.6506 28.6506 28.6506 28.6506 28.6506 28.6506 341.651 136.651 28.6506 66.6506 28.6506 28.6506 28.6506 28.6506 28.6506 28.6506 28.6506 28.6506 28.6506 28.6506 79.6506 28.6506 28.6506 28.6506 28.6506 326.651 28.6506 28.6506 28.6506 28.6506 31.6506 28.6506 28.6506 28.6506 28.6506 28.6506 28.6506 28.6506 28.6506 28.6506 28.6506 28.6506 28.6506 28.6506 28.6506 28.6506 28.6506 28.6506 28.6506 28.6506 28.6506 28.6506 29.6506 28.6506 28.6506 28.6506 28.6506 28.6506 28.6506 28.6506 31.6506 28.6506 28.6506 28.6506 28.6506 28.6506 28.6506 231.651 28.6506 28.6506 28.6506 95.6506 28.6506 83.6506 40.6506 28.6506 28.6506 28.6506 28.6506 28.6506 28.6506 28.6506 28.6506 28.6506 28.6506 28.6506 28.6506 28.6506 28.6506 28.6506 28.6506 28.6506 28.6506 28.6506 28.6506 28.6506 325.651 28.6506 28.6506 28.6506 28.6506 28.6506 28.6506 28.6506 28.6506 28.6506 28.6506 28.6506 28.6506 28.6506 28.6506 28.6506 30.6506 28.6506 28.6506 28.6506 28.6506 28.6506 28.6506 28.6506 28.6506 28.6506 368.651 28.6506 28.6506 28.6506 28.6506 28.6506 28.6506 28.6506 28.6506 28.6506 28.6506 28.6506 28.6506 28.6506 42.6506 46.6506 30.6506 28.6506 28.6506 28.6506 28.6506 28.6506 28.6506 28.6506 28.6506 28.6506 28.6506 117.651 31.6506 28.6506 28.6506 28.6506 28.6506 28.6506 28.6506 28.6506 85.6506 28.6506 
rewards of Offsets elements: 0 0 0 0 0 0 0 0 1615 0 0 949 0 0 0 0 0 0 0 851 0 0 0 0 0 0 0 0 0 0 0 0 0 0 0 0 1 0 0 0 0 0 0 0 0 0 0 642 0 0 0 0 0 0 0 0 0 0 0 0 0 0 0 0 0 0 0 0 0 0 0 0 0 0 0 0 0 0 0 0 0 0 0 0 0 0 0 0 0 0 0 1031 0 0 0 0 0 0 0 0 0 0 0 0 0 0 0 0 1047 0 0 0 0 0 6 0 39 77 0 0 0 0 0 0 0 0 0 0 0 0 0 0 0 0 0 0 0 0 0 0 0 9 0 44 0 0 0 0 0 0 0 0 0 0 0 0 0 0 0 0 0 0 0 0 0 0 0 238 0 0 144 132 0 80 35 0 0 0 0 0 0 0 0 0 0 7 24 27 21 85 36 16 2 0 0 11 5 90 12 9 20 96 90 4 15 36 48 80 100 82 120 40 66 250 144 180 66 135 132 0 0 0 4 2 0 0 0 0 0 0 0 0 0 0 0 0 0 0 0 0 0 0 0 0 0 0 0 0 0 0 0 0 0 18 50 324 96 195 160 121 300 0 0 0 0 2 0 0 0 745 0 0 0 0 0 0 0 0 0 0 0 0 0 507 0 0 0 0 0 0 0 0 0 0 0 0 0 0 0 0 0 0 0 0 0 0 0 0 0 0 0 0 0 0 0 0 0 0 0 0 0 0 0 0 0 0 0 0 0 0 0 0 0 0 0 0 0 0 0 0 0 0 0 0 0 0 0 0 0 0 0 0 0 0 9 0 0 0 0 0 0 0 0 10 20 0 0 0 0 0 0 0 0 0 0 0 0 0 0 0 0 0 0 0 0 0 0 0 0 0 0 0 0 0 0 0 0 0 0 0 0 0 0 0 0 0 0 0 0 0 0 0 0 0 0 0 0 0 0 0 0 0 0 0 0 0 0 0 0 0 0 0 0 0 0 0 0 0 0 0 0 0 0 0 0 0 0 0 0 0 0 0 0 0 0 0 0 43 0 0 0 0 0 0 2 0 0 102 0 0 0 0 0 0 0 0 0 0 0 0 0 0 0 0 0 0 0 0 0 0 0 0 0 0 0 0 0 0 0 52 0 0 0 0 0 0 0 0 0 0 0 0 0 140 72 40 33 20 9 0 0 0 1 0 0 0 0 0 0 0 0 0 10 33 45 48 15 238 109 42 42 0 0 60 36 16 18 9 9 4 0 0 0 33 54 56 3 8 84 78 12 30 105 135 48 57 0 116 0 0 0 0 0 0 0 0 0 0 0 0 0 0 0 0 0 0 0 0 0 0 0 0 0 0 0 0 0 0 0 0 0 0 0 0 0 0 0 0 0 0 0 0 0 0 0 0 0 0 0 16 0 0 0 0 0 0 0 0 0 0 0 0 0 0 0 0 0 0 0 0 0 0 0 0 0 0 0 0 0 0 0 0 0 0 0 0 0 0 0 0 0 0 0 0 0 0 0 0 0 0 0 0 0 0 0 0 0 0 0 0 0 0 0 0 0 0 0 216 0 0 0 0 0 0 0 0 0 0 0 0 0 0 0 0 0 3 0 0 0 0 0 0 0 14 0 0 12 0 0 0 0 0 0 0 0 0 0 0 0 0 0 0 0 0 0 0 0 313 108 0 38 0 0 0 0 0 0 0 0 0 0 51 0 0 0 0 298 0 0 0 0 3 0 0 0 0 0 0 0 0 0 0 0 0 0 0 0 0 0 0 0 0 0 1 0 0 0 0 0 0 0 3 0 0 0 0 0 0 203 0 0 0 67 0 55 12 0 0 0 0 0 0 0 0 0 0 0 0 0 0 0 0 0 0 0 0 0 297 0 0 0 0 0 0 0 0 0 0 0 0 0 0 0 2 0 0 0 0 0 0 0 0 0 340 0 0 0 0 0 0 0 0 0 0 0 0 0 14 18 2 0 0 0 0 0 0 0 0 0 0 89 3 0 0 0 0 0 0 0 57 0 Printing Sanity3
offset_index value891
offset list size891
reward size891
potential size891
-----------------------------------------------------------------------------------------------------------------------------------------------------------------------------------------------------

DRAM Statistics
 CHANNEL 0
 RQ ROW_BUFFER_HIT:      91792  ROW_BUFFER_MISS:     323905
 DBUS_CONGESTED:        138
 WQ ROW_BUFFER_HIT:      30394  ROW_BUFFER_MISS:     154409  FULL:          0

 AVG_CONGESTED_CYCLE: 4
 All warmup complete: 2
Channel 0 Bank busy for read cycles: 0
Channel 0 Bank busy for write cycles: 0
Channel 0
Rank 0
0banks busy for read cycles: 509239909
0banks busy for write cycles: 102017
1banks busy for read cycles: 30101304
1banks busy for write cycles: 14655755
2banks busy for read cycles: 7220063
2banks busy for write cycles: 3564574
3banks busy for read cycles: 1322614
3banks busy for write cycles: 1197784
4banks busy for read cycles: 413340
4banks busy for write cycles: 595599
5banks busy for read cycles: 158150
5banks busy for write cycles: 331067
6banks busy for read cycles: 80865
6banks busy for write cycles: 234326
7banks busy for read cycles: 67211
7banks busy for write cycles: 162933
8banks busy for read cycles: 166696
8banks busy for write cycles: 320168

CPU 0 Branch Prediction Accuracy: 98.8897% MPKI: 2.2922 Average ROB Occupancy at Mispredict: 13.9536
Branch types
NOT_BRANCH: 158710081 79.355%
BRANCH_DIRECT_JUMP: 2108913 1.05446%
BRANCH_INDIRECT: 15497831 7.74892%
BRANCH_CONDITIONAL: 16061872 8.03094%
BRANCH_DIRECT_CALL: 3023382 1.51169%
BRANCH_INDIRECT_CALL: 781117 0.390558%
BRANCH_RETURN: 3816490 1.90824%
BRANCH_OTHER: 0 0%

DRAM PAGES: 1048576
Allocated PAGES: 7943
