
*** ChampSim Multicore Out-of-Order Simulator ***

Warmup Instructions: 50000000
Simulation Instructions: 200000000
Number of CPUs: 1
LLC sets: 2048
LLC ways: 16
Off-chip DRAM Size: 4096 MB Channels: 1 Width: 64-bit Data Rate: 6400 MT/s
CPU 0 runs traces/spec2k17/srv_17.champsimtrace.xz
.xz
BTB has LRU replacement policy
ITLB has LRU replacement policy
DTLB has LRU replacement policy
STLB has LRU replacement policy
L1I has LRU replacement policy
L1D has LRU replacement policy
Initialize SRRIP state for L2C
Initialize DRRIP state for LLC
Offsets elements: 
Potential of Offsets elements: 
rewards of Offsets elements: 
Printing Sanity1
offset list size2255
Offsets elements: 
Potential of Offsets elements: 
rewards of Offsets elements: 50 64 0 12 0 832 0 0 1722 336 132 0 0 0 0 72 0 0 0 0 15 0 1268 0 85 76 56 1108 0 342 0 0 0 0 0 0 0 0 1422 0 0 0 3 0 222 0 61 922 0 0 0 1825 0 241 0 270 408 440 766 36 580 6 0 0 0 244 0 0 0 0 0 0 0 0 0 0 7 0 114 0 189 0 0 0 0 0 0 236 0 0 0 58 0 0 164 406 35 45 0 0 0 0 0 31 6 0 0 0 0 0 0 0 0 0 0 0 0 18 0 0 6 30 0 0 64 0 0 0 0 6 4 23 0 0 0 0 0 2 0 0 0 0 0 0 0 0 0 0 0 0 0 40 0 0 0 0 1541 0 10 4 0 0 0 408 0 99 0 0 38 0 0 0 270 0 0 6 0 41 0 0 144 68 35 0 0 21 0 0 0 0 0 0 171 110 0 0 0 74 40 0 0 0 0 0 0 0 0 0 0 0 0 0 0 0 0 0 0 0 0 0 17 0 0 12 16 6 107 0 0 0 204 50 25 0 0 0 0 0 0 0 101 0 0 0 0 0 0 0 0 710 0 0 0 0 0 0 0 10 592 179 40 123 0 0 0 3 176 0 0 0 0 0 0 0 0 0 0 0 0 0 0 0 0 0 29 0 0 0 0 0 0 2 71 335 0 0 0 0 0 56 280 0 0 0 0 0 0 0 0 0 0 0 0 0 0 0 0 30 0 0 0 0 389 0 0 14 143 174 63 0 0 0 0 45 108 0 0 0 0 0 0 0 0 0 0 0 26 0 0 0 0 0 0 0 35 0 0 0 0 0 0 219 52 0 0 0 68 13 1350 0 0 6 0 0 0 0 0 0 0 0 0 0 26 0 0 0 0 0 6 0 0 0 0 38 0 0 0 0 457 185 33 0 0 7 0 0 0 0 0 0 14 0 207 596 0 22 108 76 0 0 0 0 0 76 0 0 0 0 17 0 539 0 11 0 0 12 0 61 0 327 17 0 15 0 0 0 59 1 0 57 0 0 0 0 0 102 0 0 0 0 0 6 0 2 30 0 16 0 0 0 30 16 11 0 0 0 0 0 0 0 0 7 0 7 0 0 0 0 0 0 0 0 0 0 0 0 0 0 0 0 0 0 0 0 0 0 50 0 0 0 0 0 0 0 0 0 0 0 0 25 0 0 0 0 0 0 0 0 0 0 12 0 0 0 0 4 0 0 0 0 46 0 0 6 9 0 0 0 0 0 0 0 0 0 0 0 0 0 0 0 0 0 0 0 81 0 0 0 59 5 0 0 10 0 4 0 0 0 34 0 0 0 0 0 0 0 0 0 0 0 0 0 0 0 0 0 0 0 0 1 0 0 0 0 0 0 0 0 4 123 0 0 0 0 0 0 0 0 0 0 0 0 0 0 0 0 7 0 0 1 7 0 0 100 0 0 0 0 0 0 0 0 0 39 0 0 140 0 0 0 0 0 0 0 0 0 0 0 0 0 0 0 0 0 0 0 14 0 0 0 0 4 0 0 1 0 0 78 0 0 0 0 0 0 0 0 0 0 0 0 0 0 0 0 0 0 0 19 0 0 0 0 0 0 0 0 0 0 0 0 0 93 0 0 42 0 0 0 0 0 0 0 0 0 0 0 0 0 0 0 0 42 0 0 0 112 0 0 0 0 0 0 0 1 0 43 0 0 0 1 0 0 0 0 0 0 0 0 0 0 0 0 0 0 0 0 0 0 1 0 0 0 0 0 0 0 0 0 0 0 0 0 3 1 0 0 0 0 0 0 0 0 0 0 0 0 27 142 0 0 52 0 221 110 0 0 0 0 0 0 0 3 0 0 184 0 55 31 0 0 0 198 0 34 32 0 0 0 0 0 0 0 0 1 0 0 0 0 0 0 0 0 0 0 0 0 0 0 12 0 1 0 0 0 0 0 0 0 1 0 0 0 7 0 0 0 0 14 0 0 167 0 0 0 0 124 0 0 0 0 0 0 78 2 0 49 0 0 0 0 0 0 0 125 0 0 0 0 0 0 0 0 0 10 175 0 0 0 0 0 0 0 0 5 5 0 22 126 12 0 0 599 0 0 0 0 0 0 84 0 0 0 0 0 0 0 0 0 37 0 0 0 0 0 0 0 0 4 0 0 1 52 0 2 0 0 0 0 0 0 0 0 0 0 0 0 0 0 0 0 0 0 0 0 0 0 0 0 0 0 0 0 0 0 0 928 0 0 0 0 0 0 0 11 0 0 0 0 0 0 0 0 22 57 0 0 0 0 0 0 0 0 0 0 0 0 0 0 0 11 15 0 0 0 0 0 0 0 0 0 0 0 0 0 0 0 0 0 0 0 0 0 0 0 0 0 0 0 0 0 0 0 0 0 39 0 0 0 0 0 0 0 0 0 0 0 0 0 0 0 0 0 0 0 0 0 0 0 0 0 0 0 0 0 0 0 0 1 0 0 0 0 0 0 0 0 0 0 0 0 0 0 0 0 0 0 0 0 0 0 0 0 0 0 0 0 0 0 0 0 1 251 27 0 0 0 0 0 0 0 0 0 0 0 0 0 0 0 680 90 0 0 0 0 0 0 0 0 0 0 0 0 0 0 0 0 54 9 0 0 0 0 0 0 0 0 0 0 0 0 0 0 0 0 0 0 6 0 0 0 0 0 0 0 0 0 0 0 0 0 27 9 52 14 0 0 0 0 0 0 0 0 0 7 0 0 0 0 0 0 0 0 0 0 0 0 0 0 0 0 0 0 0 0 51 0 0 1 0 0 0 0 0 0 0 0 0 0 0 0 0 0 0 0 0 0 0 0 0 0 0 0 0 0 0 0 0 0 152 0 0 0 0 0 0 0 0 0 0 0 0 0 0 0 0 0 0 0 0 58 0 0 0 0 0 0 0 0 0 0 0 0 1 0 0 0 0 0 0 0 0 0 0 0 0 0 0 0 0 0 0 0 0 0 0 0 0 0 0 0 0 0 0 0 0 104 64 0 0 0 0 0 0 0 0 0 0 0 0 0 0 0 59 109 0 0 0 15 0 0 0 0 0 0 38 0 0 0 0 0 0 2 0 0 0 0 0 0 0 0 0 0 0 0 0 0 0 0 9 0 0 0 0 0 0 0 0 0 0 0 0 0 0 0 0 11 0 0 0 0 0 0 0 0 0 0 0 0 0 0 0 0 0 84 0 0 0 0 0 0 0 0 0 0 0 0 0 0 0 0 7 0 0 0 0 0 19 94 0 0 0 0 0 0 0 0 0 128 0 0 0 0 0 0 0 0 0 0 0 0 0 0 0 0 25 0 0 0 0 0 0 0 0 0 0 0 0 5 0 0 0 0 0 0 0 0 0 0 0 0 0 0 0 0 0 0 4 0 8 118 0 0 0 0 0 201 0 0 0 0 0 0 0 0 0 0 0 0 4 36 0 0 0 0 0 0 0 0 0 0 4 0 0 8 0 0 0 0 0 0 0 0 0 6 0 0 0 127 0 0 8 0 0 0 0 0 0 2 0 0 0 0 0 0 0 0 18 16 13 0 0 0 0 0 0 0 0 0 0 0 0 0 0 1 0 0 0 100 0 0 0 61 14 0 0 2 0 222 55 0 6 4 0 0 2 0 48 0 0 0 0 0 0 0 0 0 0 0 0 0 4 0 0 0 0 0 0 0 0 0 0 0 24 0 7 7 0 0 0 64 0 0 0 0 0 0 0 0 0 0 0 0 0 4 33 14 0 0 0 0 0 0 0 0 0 0 0 0 1 59 0 0 0 0 0 0 0 0 0 0 0 0 0 0 0 0 0 0 0 0 0 0 0 0 0 0 0 0 0 0 0 0 0 7 0 0 0 0 0 0 0 0 0 0 0 0 36 0 0 0 25 22 0 0 0 0 0 0 0 0 0 0 0 133 0 0 0 0 20 27 0 0 0 0 0 0 0 0 0 0 0 0 0 0 0 0 10 0 0 0 0 0 0 0 0 0 0 0 0 0 0 0 6 0 0 0 0 0 0 0 0 0 0 0 0 0 0 0 0 4 0 0 0 0 0 0 0 0 0 0 0 0 0 0 0 0 144 0 0 0 0 0 0 0 0 0 113 0 0 0 0 0 0 102 6 0 0 0 0 0 0 0 0 0 0 0 0 0 0 0 52 63 0 0 0 0 0 0 0 0 0 0 0 0 0 7 0 141 0 0 0 0 0 0 0 0 0 0 0 0 0 0 0 0 506 6 0 0 0 0 0 0 0 0 0 0 0 0 0 0 0 954 0 0 0 0 0 0 0 0 0 0 0 0 0 0 0 0 24 0 0 0 0 0 0 0 0 0 0 0 0 11 0 0 95 103 0 0 0 0 0 0 0 0 0 0 0 0 0 0 0 0 67 0 0 0 0 0 0 0 0 0 0 0 0 0 0 54 19 0 0 0 0 0 0 0 0 0 0 11 0 0 0 0 0 0 0 312 5 0 0 0 0 0 0 0 0 0 0 0 0 0 0 0 0 0 0 0 0 0 0 0 0 0 0 0 0 0 0 0 0 1065 42 0 0 0 0 0 0 0 0 0 0 9 16 0 0 0 0 0 0 0 0 0 0 0 0 0 0 0 0 0 0 0 0 10 0 0 0 0 0 0 0 0 0 0 0 4 0 0 0 0 421 0 0 0 0 0 0 0 0 0 0 0 0 0 0 0 0 71 1 0 0 0 0 0 0 0 0 0 0 0 30 0 12 22 0 0 0 0 0 0 0 0 0 0 0 0 0 0 0 0 0 23 36 0 0 0 0 0 0 0 0 0 134 0 0 6 2 2 0 0 0 0 0 0 0 0 0 0 0 0 0 0 0 6 0 0 44 0 0 0 0 0 0 0 0 0 0 0 13 0 16 84 0 0 0 0 0 0 0 0 0 0 0 0 0 0 0 0 0 0 0 144 256 0 0 0 0 0 0 0 0 0 1 0 0 20 0 0 0 0 0 0 0 0 0 0 0 0 0 0 0 0 0 2 152 44 0 0 0 0 0 0 7 0 0 0 0 0 0 0 0 0 0 0 0 0 2 0 28 0 0 0 0 0 0 0 0 0 0 14 0 0 0 
Printing Sanity2
Heartbeat CPU 0 instructions: 10000001 cycles: 2888406 heartbeat IPC: 3.46212 cumulative IPC: 3.46212 (Simulation time: 0 hr 0 min 19 sec) 
Heartbeat CPU 0 instructions: 20000001 cycles: 5978281 heartbeat IPC: 3.23638 cumulative IPC: 3.34544 (Simulation time: 0 hr 0 min 38 sec) 
Heartbeat CPU 0 instructions: 30000001 cycles: 9068463 heartbeat IPC: 3.23606 cumulative IPC: 3.30817 (Simulation time: 0 hr 0 min 57 sec) 
*** Reached end of trace for Core: 0 Repeating trace: traces/spec2k17/srv_17.champsimtrace.xz
Heartbeat CPU 0 instructions: 40000000 cycles: 12116798 heartbeat IPC: 3.28048 cumulative IPC: 3.3012 (Simulation time: 0 hr 1 min 16 sec) 
Heartbeat CPU 0 instructions: 50000000 cycles: 15156859 heartbeat IPC: 3.28941 cumulative IPC: 3.29884 (Simulation time: 0 hr 1 min 35 sec) 

Warmup complete CPU 0 instructions: 50000003 cycles: 15156860 (Simulation time: 0 hr 1 min 35 sec) 

Heartbeat CPU 0 instructions: 60000001 cycles: 48597677 heartbeat IPC: 0.299036 cumulative IPC: 0.299036 (Simulation time: 0 hr 2 min 12 sec) 
*** Reached end of trace for Core: 0 Repeating trace: traces/spec2k17/srv_17.champsimtrace.xz
Heartbeat CPU 0 instructions: 70000000 cycles: 81949284 heartbeat IPC: 0.299836 cumulative IPC: 0.299435 (Simulation time: 0 hr 2 min 50 sec) 
Heartbeat CPU 0 instructions: 80000001 cycles: 115284293 heartbeat IPC: 0.299985 cumulative IPC: 0.299618 (Simulation time: 0 hr 3 min 27 sec) 
Heartbeat CPU 0 instructions: 90000000 cycles: 148643294 heartbeat IPC: 0.299769 cumulative IPC: 0.299656 (Simulation time: 0 hr 4 min 4 sec) 
*** Reached end of trace for Core: 0 Repeating trace: traces/spec2k17/srv_17.champsimtrace.xz
Heartbeat CPU 0 instructions: 100000000 cycles: 181970167 heartbeat IPC: 0.300058 cumulative IPC: 0.299736 (Simulation time: 0 hr 4 min 42 sec) 
Heartbeat CPU 0 instructions: 110000000 cycles: 215286287 heartbeat IPC: 0.300155 cumulative IPC: 0.299806 (Simulation time: 0 hr 5 min 19 sec) 
Heartbeat CPU 0 instructions: 120000002 cycles: 248613892 heartbeat IPC: 0.300052 cumulative IPC: 0.299841 (Simulation time: 0 hr 5 min 56 sec) 
*** Reached end of trace for Core: 0 Repeating trace: traces/spec2k17/srv_17.champsimtrace.xz
Heartbeat CPU 0 instructions: 130000003 cycles: 281920969 heartbeat IPC: 0.300237 cumulative IPC: 0.29989 (Simulation time: 0 hr 6 min 33 sec) 
Heartbeat CPU 0 instructions: 140000003 cycles: 315228809 heartbeat IPC: 0.30023 cumulative IPC: 0.299928 (Simulation time: 0 hr 7 min 11 sec) 
Heartbeat CPU 0 instructions: 150000001 cycles: 348537916 heartbeat IPC: 0.300218 cumulative IPC: 0.299957 (Simulation time: 0 hr 7 min 49 sec) 
*** Reached end of trace for Core: 0 Repeating trace: traces/spec2k17/srv_17.champsimtrace.xz
Heartbeat CPU 0 instructions: 160000001 cycles: 381850578 heartbeat IPC: 0.300186 cumulative IPC: 0.299978 (Simulation time: 0 hr 8 min 28 sec) 
Heartbeat CPU 0 instructions: 170000000 cycles: 415157530 heartbeat IPC: 0.300238 cumulative IPC: 0.299999 (Simulation time: 0 hr 9 min 6 sec) 
Heartbeat CPU 0 instructions: 180000002 cycles: 448457807 heartbeat IPC: 0.300298 cumulative IPC: 0.300022 (Simulation time: 0 hr 9 min 43 sec) 
*** Reached end of trace for Core: 0 Repeating trace: traces/spec2k17/srv_17.champsimtrace.xz
Heartbeat CPU 0 instructions: 190000000 cycles: 481763858 heartbeat IPC: 0.300246 cumulative IPC: 0.300038 (Simulation time: 0 hr 10 min 22 sec) 
Heartbeat CPU 0 instructions: 200000002 cycles: 515064234 heartbeat IPC: 0.300297 cumulative IPC: 0.300056 (Simulation time: 0 hr 11 min 0 sec) 
Heartbeat CPU 0 instructions: 210000001 cycles: 548366482 heartbeat IPC: 0.30028 cumulative IPC: 0.30007 (Simulation time: 0 hr 11 min 37 sec) 
*** Reached end of trace for Core: 0 Repeating trace: traces/spec2k17/srv_17.champsimtrace.xz
Heartbeat CPU 0 instructions: 220000000 cycles: 581678125 heartbeat IPC: 0.300195 cumulative IPC: 0.300077 (Simulation time: 0 hr 12 min 15 sec) 
Heartbeat CPU 0 instructions: 230000000 cycles: 614970090 heartbeat IPC: 0.300373 cumulative IPC: 0.300093 (Simulation time: 0 hr 12 min 52 sec) 
Heartbeat CPU 0 instructions: 240000002 cycles: 648265630 heartbeat IPC: 0.300341 cumulative IPC: 0.300106 (Simulation time: 0 hr 13 min 30 sec) 
Heartbeat CPU 0 instructions: 250000002 cycles: 681584542 heartbeat IPC: 0.30013 cumulative IPC: 0.300108 (Simulation time: 0 hr 14 min 7 sec) 
Finished CPU 0 instructions: 200000003 cycles: 666427683 cumulative IPC: 0.300108 (Simulation time: 0 hr 14 min 7 sec) 

ChampSim completed all CPUs

Region of Interest Statistics

CPU 0 cumulative IPC: 0.300108 instructions: 200000003 cycles: 666427683
ITLB TOTAL     ACCESS:   35373537  HIT:   32957379  MISS:    2416158  HIT %:    93.1696  MISS %:    6.83041   MPKI: 12.0808
ITLB LOAD TRANSLATION ACCESS:   35373537  HIT:   32957379  MISS:    2416158  HIT %:    93.1696  MISS %:    6.83041   MPKI: 12.0808
ITLB PREFETCH  REQUESTED:          0  ISSUED:          0  USEFUL:          0  USELESS:          0
ITLB USEFUL LOAD PREFETCHES:          0 PREFETCH ISSUED TO LOWER LEVEL:          0  ACCURACY: -nan
ITLB TIMELY PREFETCHES:          0 LATE PREFETCHES: 0 DROPPED PREFETCHES: 0
ITLB PREFETCHES SAME FILL-ORIGIN LEVEL: 0 DIFFERENT FILL-ORIGIN LEVEL: 0
ITLB AVERAGE MISS LATENCY: 9.00601 cycles
ITLB RQ	ACCESS:   41911379	FORWARD:          0	MERGED:    5982378	TO_CACHE:   35929001

DTLB TOTAL     ACCESS:   47278657  HIT:   45312757  MISS:    1965900  HIT %:    95.8419  MISS %:    4.15811   MPKI: 9.8295
DTLB LOAD TRANSLATION ACCESS:   47278657  HIT:   45312757  MISS:    1965900  HIT %:    95.8419  MISS %:    4.15811   MPKI: 9.8295
DTLB PREFETCH  REQUESTED:          0  ISSUED:          0  USEFUL:          0  USELESS:          0
DTLB USEFUL LOAD PREFETCHES:          0 PREFETCH ISSUED TO LOWER LEVEL:          0  ACCURACY: -nan
DTLB TIMELY PREFETCHES:          0 LATE PREFETCHES: 0 DROPPED PREFETCHES: 0
DTLB PREFETCHES SAME FILL-ORIGIN LEVEL: 0 DIFFERENT FILL-ORIGIN LEVEL: 0
DTLB AVERAGE MISS LATENCY: 8.9979 cycles
DTLB RQ	ACCESS:   62481836	FORWARD:          0	MERGED:   15151984	TO_CACHE:   47329852

STLB TOTAL     ACCESS:    6598460  HIT:    6596967  MISS:       1493  HIT %:    99.9774  MISS %:  0.0226265   MPKI: 0.007465
STLB LOAD TRANSLATION ACCESS:    4382058  HIT:    4380565  MISS:       1493  HIT %:    99.9659  MISS %:  0.0340707   MPKI: 0.007465
STLB TRANSLATION FROM L1D PREFETCHER ACCESS:    2216402  HIT:    2216402  MISS:          0  HIT %:        100  MISS %:          0   MPKI: 0
STLB PREFETCH  REQUESTED:          0  ISSUED:          0  USEFUL:          0  USELESS:          0
STLB USEFUL LOAD PREFETCHES:          0 PREFETCH ISSUED TO LOWER LEVEL:          0  ACCURACY: -nan
STLB TIMELY PREFETCHES:          0 LATE PREFETCHES: 0 DROPPED PREFETCHES: 22443304
STLB PREFETCHES SAME FILL-ORIGIN LEVEL: 0 DIFFERENT FILL-ORIGIN LEVEL: 0
STLB AVERAGE MISS LATENCY: 35.9337 cycles
STLB RQ	ACCESS:   35407314	FORWARD:          0	MERGED:    3743736	TO_CACHE:   31663578

STLB Hit, L1D data hit: 0
STLB Hit, L2C data hit: 0
STLB Hit, LLC data hit: 0
STLB Hit, LLC data miss: 0
STLB STLB hints to L2: 0
L1D TOTAL     ACCESS:   62918722  HIT:   58471934  MISS:    4446788  HIT %:    92.9325  MISS %:    7.06751   MPKI: 22.2339
L1D LOAD      ACCESS:   34540447  HIT:   31307913  MISS:    3232534  HIT %:    90.6413  MISS %:    9.35869   MPKI: 16.1627
L1D RFO       ACCESS:   26131234  HIT:   24956528  MISS:    1174706  HIT %:    95.5046  MISS %:    4.49541   MPKI: 5.87353
L1D PREFETCH  ACCESS:    2247041  HIT:    2207493  MISS:      39548  HIT %:      98.24  MISS %:       1.76   MPKI: 0.19774
AGUS PREFETCH L1 MISS: 0
L1D PREFETCH  REQUESTED:   65694926  ISSUED:   65642202  USEFUL:          0  USELESS:      39553
L1D USEFUL LOAD PREFETCHES:          0 PREFETCH ISSUED TO LOWER LEVEL:      39548  ACCURACY: 0
L1D TIMELY PREFETCHES:          0 LATE PREFETCHES: 0 DROPPED PREFETCHES: 28778214
L1D PREFETCHES SAME FILL-ORIGIN LEVEL: 39548 DIFFERENT FILL-ORIGIN LEVEL: 0
L1D AVERAGE MISS LATENCY: 16.3872 cycles
L1D RQ	ACCESS:   47145534	FORWARD:          0	MERGED:   12126023	TO_CACHE:   34669668
L1D WQ	ACCESS:   27961654	FORWARD:     349843	MERGED:     149486	TO_CACHE:   27812168
L1D PQ	ACCESS:   34616946	FORWARD:          0	MERGED:    3591690	TO_CACHE:   31025256

L1D UNIQUE REGIONS ACCESSED: 0
L1D REGIONS CONFLICTS: 0
L1D Cross Page Prefetch Requests: 41267833
L1D Same Page Prefetch Requests: 12545
L1D ROI Sum of L1D PQ occupancy: 1274518757
L1D PREFETCHES PUSHED FROM L2C: 0
L1I TOTAL     ACCESS:   40154492  HIT:   28023414  MISS:   12131078  HIT %:     69.789  MISS %:     30.211   MPKI: 60.6554
L1I LOAD      ACCESS:   40154492  HIT:   28023414  MISS:   12131078  HIT %:     69.789  MISS %:     30.211   MPKI: 60.6554
L1I PREFETCH  REQUESTED:          0  ISSUED:          0  USEFUL:          0  USELESS:          0
L1I USEFUL LOAD PREFETCHES:          0 PREFETCH ISSUED TO LOWER LEVEL:          0  ACCURACY: -nan
L1I TIMELY PREFETCHES:          0 LATE PREFETCHES: 0 DROPPED PREFETCHES: 0
L1I PREFETCHES SAME FILL-ORIGIN LEVEL: 0 DIFFERENT FILL-ORIGIN LEVEL: 0
L1I AVERAGE MISS LATENCY: 15.3043 cycles
L1I RQ	ACCESS:   58868494	FORWARD:          0	MERGED:   16957115	TO_CACHE:   41911379

BTB TOTAL     ACCESS:   30222000  HIT:   16757522  MISS:   13464478  HIT %:    55.4481  MISS %:    44.5519   MPKI: 67.3224
BTB BRANCH_DIRECT_JUMP	ACCESS:    1952659  HIT:    1081780  MISS:     870879
BTB BRANCH_INDIRECT	ACCESS:   12737379  HIT:    7604711  MISS:    5132668
BTB BRANCH_CONDITIONAL	ACCESS:    5645921  HIT:    4273177  MISS:    1372744
BTB BRANCH_DIRECT_CALL	ACCESS:    4153390  HIT:    1949552  MISS:    2203838
BTB BRANCH_INDIRECT_CALL	ACCESS:     789644  HIT:     387843  MISS:     401801
BTB BRANCH_RETURN	ACCESS:    4943007  HIT:    1460459  MISS:    3482548
BTB BRANCH_OTHER ACCESS:          0  HIT:          0  MISS:          0

L2C TOTAL     ACCESS:   43459086  HIT:   42765092  MISS:     693994  HIT %:    98.4031  MISS %:    1.59689   MPKI: 3.46997
L2C LOAD      ACCESS:   15362947  HIT:   14693876  MISS:     669071  HIT %:    95.6449  MISS %:     4.3551   MPKI: 3.34535
L2C DATA LOAD MPKI: 0.91984
L2C INSTRUCTION LOAD MPKI: 2.42551
L2C RFO       ACCESS:    1174706  HIT:    1166257  MISS:       8449  HIT %:    99.2808  MISS %:   0.719244   MPKI: 0.042245
L2C PREFETCH  ACCESS:      39548  HIT:      39548  MISS:          0  HIT %:        100  MISS %:          0   MPKI: 0
AGUS PREFETCH L1 MISS: 0
L2C DATA PREFETCH MPKI: 0
L2C INSTRUCTION PREFETCH MPKI: 0
L2C WRITEBACK ACCESS:    2283553  HIT:    2267625  MISS:      15928  HIT %:    99.3025  MISS %:    0.69751   MPKI: 0.07964
L2C LOAD TRANSLATION ACCESS:       1493  HIT:        986  MISS:        507  HIT %:    66.0415  MISS %:    33.9585   MPKI: 0.002535
L2C TRANSLATION FROM L1D PREFETCHER ACCESS:   24596839  HIT:   24596800  MISS:         39  HIT %:    99.9998  MISS %: 0.000158557   MPKI: 0.000195
L2C PREFETCH  REQUESTED:          0  ISSUED:          0  USEFUL:         33  USELESS:         26
L2C USEFUL LOAD PREFETCHES:         33 PREFETCH ISSUED TO LOWER LEVEL:          0  ACCURACY: inf
L2C TIMELY PREFETCHES:         33 LATE PREFETCHES: 0 DROPPED PREFETCHES: 0
L2C PREFETCHES SAME FILL-ORIGIN LEVEL: 0 DIFFERENT FILL-ORIGIN LEVEL: 0
L2C AVERAGE MISS LATENCY: 29.5015 cycles
L2C RQ	ACCESS:   41136650	FORWARD:          0	MERGED:          0	TO_CACHE:   41135985
L2C WQ	ACCESS:    2283553	FORWARD:        665	MERGED:          0	TO_CACHE:    2283553
L2C PQ	ACCESS:      39548	FORWARD:          0	MERGED:          0	TO_CACHE:      39548

L2C Instructions Evicting Data 95798
L2C Translations Evicting Data 493
L2C Data Evicting Data 111326
L2C Instructions Evicting Instructions 389273
L2C Translations Evicting Instructions 34
L2C Data Evicting Instructions 80578
L2C Instructions Evicting Translations 32
L2C Translations Evicting Translations 19
L2C Data Evicting Translations 513
L2C Dense regions hint from L2: 0
PSCL5 TOTAL     ACCESS:   16114108  HIT:   16114108  MISS:          0  HIT %:        100  MISS %:          0   MPKI: 0
PSCL5 LOAD TRANSLATION ACCESS:       1493  HIT:       1493  MISS:          0  HIT %:        100  MISS %:          0   MPKI: 0
PSCL5 TRANSLATION FROM L1D PREFETCHER ACCESS:   16112615  HIT:   16112615  MISS:          0  HIT %:        100  MISS %:          0   MPKI: 0
PSCL5 PREFETCH  REQUESTED:          0  ISSUED:          0  USEFUL:          0  USELESS:          0
PSCL5 USEFUL LOAD PREFETCHES:          0 PREFETCH ISSUED TO LOWER LEVEL:          0  ACCURACY: -nan
PSCL5 TIMELY PREFETCHES:          0 LATE PREFETCHES: 0 DROPPED PREFETCHES: 0
PSCL5 PREFETCHES SAME FILL-ORIGIN LEVEL: 0 DIFFERENT FILL-ORIGIN LEVEL: 0

PSCL4 TOTAL     ACCESS:    8831979  HIT:    8831979  MISS:          0  HIT %:        100  MISS %:          0   MPKI: 0
PSCL4 LOAD TRANSLATION ACCESS:       1487  HIT:       1487  MISS:          0  HIT %:        100  MISS %:          0   MPKI: 0
PSCL4 TRANSLATION FROM L1D PREFETCHER ACCESS:    8830492  HIT:    8830492  MISS:          0  HIT %:        100  MISS %:          0   MPKI: 0
PSCL4 PREFETCH  REQUESTED:          0  ISSUED:          0  USEFUL:          0  USELESS:          0
PSCL4 USEFUL LOAD PREFETCHES:          0 PREFETCH ISSUED TO LOWER LEVEL:          0  ACCURACY: -nan
PSCL4 TIMELY PREFETCHES:          0 LATE PREFETCHES: 0 DROPPED PREFETCHES: 0
PSCL4 PREFETCHES SAME FILL-ORIGIN LEVEL: 0 DIFFERENT FILL-ORIGIN LEVEL: 0

PSCL3 TOTAL     ACCESS:    8831979  HIT:    8831979  MISS:          0  HIT %:        100  MISS %:          0   MPKI: 0
PSCL3 LOAD TRANSLATION ACCESS:       1487  HIT:       1487  MISS:          0  HIT %:        100  MISS %:          0   MPKI: 0
PSCL3 TRANSLATION FROM L1D PREFETCHER ACCESS:    8830492  HIT:    8830492  MISS:          0  HIT %:        100  MISS %:          0   MPKI: 0
PSCL3 PREFETCH  REQUESTED:          0  ISSUED:          0  USEFUL:          0  USELESS:          0
PSCL3 USEFUL LOAD PREFETCHES:          0 PREFETCH ISSUED TO LOWER LEVEL:          0  ACCURACY: -nan
PSCL3 TIMELY PREFETCHES:          0 LATE PREFETCHES: 0 DROPPED PREFETCHES: 0
PSCL3 PREFETCHES SAME FILL-ORIGIN LEVEL: 0 DIFFERENT FILL-ORIGIN LEVEL: 0

PSCL2 TOTAL     ACCESS:     232592  HIT:     232592  MISS:          0  HIT %:        100  MISS %:          0   MPKI: 0
PSCL2 LOAD TRANSLATION ACCESS:       1493  HIT:       1493  MISS:          0  HIT %:        100  MISS %:          0   MPKI: 0
PSCL2 TRANSLATION FROM L1D PREFETCHER ACCESS:     231099  HIT:     231099  MISS:          0  HIT %:        100  MISS %:          0   MPKI: 0
PSCL2 PREFETCH  REQUESTED:          0  ISSUED:          0  USEFUL:          0  USELESS:          0
PSCL2 USEFUL LOAD PREFETCHES:          0 PREFETCH ISSUED TO LOWER LEVEL:          0  ACCURACY: -nan
PSCL2 TIMELY PREFETCHES:          0 LATE PREFETCHES: 0 DROPPED PREFETCHES: 0
PSCL2 PREFETCHES SAME FILL-ORIGIN LEVEL: 0 DIFFERENT FILL-ORIGIN LEVEL: 0

LLC TOTAL     ACCESS:     702441  HIT:     701643  MISS:        798  HIT %:    99.8864  MISS %:   0.113604   MPKI: 0.00399
LLC LOAD      ACCESS:     669071  HIT:     668273  MISS:        798  HIT %:    99.8807  MISS %:    0.11927   MPKI: 0.00399
LLC RFO       ACCESS:       8449  HIT:       8449  MISS:          0  HIT %:        100  MISS %:          0   MPKI: 0
LLC WRITEBACK ACCESS:      24375  HIT:      24375  MISS:          0  HIT %:        100  MISS %:          0   MPKI: 0
LLC LOAD TRANSLATION ACCESS:        507  HIT:        507  MISS:          0  HIT %:        100  MISS %:          0   MPKI: 0
LLC TRANSLATION FROM L1D PREFETCHER ACCESS:         39  HIT:         39  MISS:          0  HIT %:        100  MISS %:          0   MPKI: 0
LLC PREFETCH  REQUESTED:          0  ISSUED:          0  USEFUL:          4  USELESS:          0
LLC USEFUL LOAD PREFETCHES:          4 PREFETCH ISSUED TO LOWER LEVEL:          0  ACCURACY: inf
LLC TIMELY PREFETCHES:          4 LATE PREFETCHES: 0 DROPPED PREFETCHES: 0
LLC PREFETCHES SAME FILL-ORIGIN LEVEL: 0 DIFFERENT FILL-ORIGIN LEVEL: 0
LLC AVERAGE MISS LATENCY: 165.273 cycles
LLC RQ	ACCESS:     678066	FORWARD:          0	MERGED:          0	TO_CACHE:     678066
LLC WQ	ACCESS:      24375	FORWARD:          0	MERGED:          0	TO_CACHE:      24375

LLC Dense regions hint to LLC: 0

RAW hits: 1517519
Loads Generated: 48663052
Loads sent to L1D: 47145534
Stores Generated: 27961655
Stores sent to L1D: 27961654
Major fault: 0 Minor fault: 1253
Allocated PAGES: 1253
ucb ended
-----------------------------------------------------------------------------------------------------------------------------------------------------------------------------------------------------
Offsets elements: 20623 -20623 1465993402652 -194 -1465993402347 1465995990061 -1465995919652 -70520 1465995990172 -1465995968591 -958 1465993382029 -1465993402541 1073932 -1052462 -21581 -1465995960649 -29412 29412 -7954 48953 1003521 -1 1465992328610 -111 21581 176441 3 1465995792148 -1465995990172 -1465996001416 11355 1095512 -1075000 177401 -168379 -29645 180488 1 -158920 1465995919650 -1465996000902 1049573 -3539 5 -1035309 225502 -5 1465995764674 -1465995790357 24633 -4 810860 10 -809814 11 -6 -2 -3 -25676 2 -40990 65577 -24591 25682 7 -25688 1465993202633 -1465992364177 1465992364176 -1465992367146 43486 -853283 -991 1465993177935 -1465992341661 -835286 813335 -1038843 2587520 -1465995990061 21454 48955 -48951 -70522 1095623 1465994894549 -1465995974347 -15575 1038594 56893 -1095737 1465993402457 2587716 -2587715 -1465993381834 48939 -70409 -1465995792149 -161972 1465993366408 -1465993380889 -70523 -1465995969549 21470 14503 34436 1465993402459 2587714 -1465994916130 -1052472 132073 -45187 45144 -202555 202555 1465995787617 -20512 1465993402541 -1465993381071 -21470 70409 -34427 -36093 -1465995787574 -181029 -70524 -1465995954172 166598 -202352 21323 48952 132077 1465993199860 -1465993402458 1465995969549 -2587520 -48939 14424 -36005 -1465995968603 1465993331937 70520 1052461 1465994916130 -1465995954079 1059522 -1095578 21533 1003546 -1074033 -37 -4792 1465993407333 29603 1465995960569 -1465994894557 -1074045 1057182 -1008227 1008225 -921326 -157424 20512 958 1465993381071 -1465993366647 34515 21569 1465995919651 -1465994911423 -1078749 111 1095503 1465994894558 9022 -1465993381083 1465995968603 1008227 -2587713 192 1465995968591 -1465995960560 -29501 29534 -1465995968602 -49902 -1465993332130 29492 -29603 1465993402489 -1465993380919 1465995968602 -1465995919648 -1465993402462 1465993402487 2587685 -1465994916106 1465992328421 -1465992328421 -1465993385611 1106 -17982 -1465995833574 922308 -1078668 1078669 -922019 922019 -1078907 1078907 1465994911265 -1465994911265 1465992323579 -1465993247292 -155194 -1465995989454 -432 -10772 1465995942280 -8 58386 -58033 -2529682 2582755 -2582752 30 -1465992323579 -1249052 170145 -2587712 -1465993402213 155842 1465993246517 -149 -1465993246347 -2932031541359 2932031541359 1465993246348 -1465992330502 23 -1071738 1465993402220 -1465992330482 1465992330482 1465992330478 -1465992328390 -917467 915382 6 1465992330466 -1465992330474 1465992330474 -1465993519282 117077 155841 -156088 1465993402458 -2587718 33 -27 28 -1465993402488 -1465994914882 -1086575 1086575 44 -1086620 1465993413743 -1465992327162 -1058582 -27995 1086577 -1075043 1465993402359 -1465993243015 915704 -1075047 159343 1465993242865 -1465993385749 1058582 1465992327168 -1465992327163 18 1465992327146 -1465992327161 1465992327161 -1465992327160 1465992327159 -1465992327157 1465992327157 -1465992327156 1465992327156 -1465992327155 1465992327155 -1465992327153 1465992327153 -1465992327152 1465992327152 -1465992327150 1465992327150 -1465992327149 1465992327149 -1465992327148 1465992327148 -1465992327145 -1075311 2587715 -2587685 -1465992327197 11285 -1465992327164 -1058585 -11534 170878 1465993242863 152 -1465992327312 -1075046 1465993242864 1465992327164 19 1465992327145 1465992327163 1465992327160 -1465992327159 -1465992327144 -2587684 -1465992327198 -1086576 27994 -1075290 -11285 1465996001457 1075290 1465994914882 -1465994914881 1086620 1465992327122 1058584 1465993243015 915701 -1075044 -1465993385748 1058627 -43 -1058422 -16591 17865 1465993384310 -1465993402454 1465992327166 -1465992327165 21 1465992327144 1465992327162 -1465992327158 1465992327158 -1465992327154 1465992327154 -1465992327151 1465992327151 -1465992327147 -1465992327143 1465993402456 2587717 -44 -1465993402457 -2587716 31 -30 1465992327123 -1465992327166 -1058583 1058583 1075043 -1086577 1465993413893 915700 1465992327167 -1465992327167 22 1465992327147 -1465993385779 1057359 1223 -1086574 29 -1465992328420 -917527 -167257 10717 156540 1465995833632 -1465994951329 -813342 -225501 225498 -1465995764670 -1055 -427 -62802 64279 -225498 -1465995765728 -224444 -1465995996146 231472 -1097 124 967 -9 4 -1092 1099 -12 1096 1465993176945 -1465993402451 1465993402453 2587720 -1465995972016 51 -18207 -1465993204506 1465993204505 1465993402460 -1465993384305 1465995972017 -2587714 -1465993402463 -28 2587711 -2587710 -1465993402221 1465993402317 -49 49 -7 56 -64 9 -1465992306505 -17088 -1078906 -1465995989886 1465995931508 345 58033 -4961 -2582723 2587683 -2587683 -1465992323582 8 -4848 -917468 -138616 1060924 -922018 922018 170392 -118 -1465992328422 -509 1465993246392 -1465993402240 1465993246401 -1465992323577 1465992323580 -1465992323584 -4841 -1057190 1062030 -1062035 1062033 -1062032 1062032 -1465993402489 1465993402511 40 2587621 64 -1465992328488 290 -1693 918870 1465992328485 -1465993413904 216 1085204 -1074067 -1465996001455 1086573 -1086621 1086598 -1246 -139390 1058243 -1057484 138921 -156891 -1465996001066 11005 160886 -160997 -10838 1465996001010 -1465993381085 -48948 48960 -70532 -1465994914834 -1058468 -1045 -15573 -252 -48955 -5740 -15825 70522 -48953 -1465994957275 -1032897 21455 -5741 70526 1465995968601 -2587628 -1465993332018 1465993332019 -1465992327112 1465992327111 -1465993402545 -54697 1011358 1465994957245 -1465995968606 -1465993380974 -1465994914754 1465992327128 -1075382 1465993402548 -1465993381925 1465993381925 -1465993402437 -1465994957245 -1032927 29495 40914 1465995919652 1465993402547 -1465993380978 7952 41003 -49904 -2587623 -1465992327098 -1053882 1465993381083 -1465993402652 -1465994916105 1271 -23 -1086647 1086668 -42486 29606 1045776 1465994914790 21460 -103 -1465993402297 29271 1465995960649 -11319 -2576304 -1465993380980 1004840 -1075362 1465993402549 -1465993332028 -1465994916104 1465992328484 -1465993372946 126935 167257 -134968 -21572 70532 1465995919640 -1465995833632 -156541 1038844 1465994951328 -1465994955361 4032 -813341 1050 224444 1465995765728 -2587630 -1465993177044 1465993178137 -1465992923563 -253483 1465993402542 -1465993178098 -1465995764664 1465993177040 -1465993177039 -1465993177038 1465993177039 -1465992367734 1465992367736 -1465992367736 -1034809 1038840 -1038596 1034564 1465992367795 -1465992367794 4031 -1038840 1034809 -1034564 1034563 -1034810 1465995931853 -345 53417 4961 -4962 -2582666 2587626 -2587626 -1465993221600 -19983 19984 1465993221606 -1465993413082 1465993413081 -1465992367735 -1034811 2587625 -2587624 -1465993381926 14422 -35892 70412 -1465993402548 21570 -918942 918942 -917751 922603 -922605 917753 -917752 917754 -917753 917755 -917754 922605 917756 -917755 922596 1465993402546 -1465993366462 1465993366463 1057343 -1008387 1008386 1465992323641 -1465992328481 -917757 -156310 2587623 -1465992328483 -1074066 -40908 -29612 -1465993380977 -1465995919643 -70529 1465993402550 8022 2587622 48954 1465993332031 -1465992306945 -1077140 162012 -180479 160045 -141606 -18443 160049 -163532 1465995993655 -1465995830121 911 -911 38769 -209366 10548 -1465995830123 -163531 1465993406033 198815 -198818 -54698 1465993380978 -1465992363668 1465994951293 -1465995990169 1465993203731 -1465993402549 1465995830123 -1465994951293 1465992363669 -1465992363669 1465992363670 -1465993402546 -2587621 -1465993203732 1465993203733 -2587618 -1465993402554 160960 1465995829212 -1465996000720 160961 1465995829211 -2587622 -1465993402550 1038879 -1038593 1465995989886 -1465995942688 1465995995760 -53417 53416 -2587625 -1465992363671 -840061 840061 -878827 878828 -1038880 1079700 1465994910474 -1465995990137 1465992363677 -1465992306562 -1078020 1020905 -2587616 1465992306552 1465993402540 2587632 -1465992322852 -1090212 1465993413065 -1465992322851 16297 -1077520 181327 -199519 1465995935524 -2533199 288223780712110430 -10345315 -2200619275607 2200619275607 -146215 201812 -253047 253047 -637171 637174 -15267 -12873653 12873651 -2200619281385 2200619257100 -2200619150376 2200619134304 16074 -16074 55617 10289416 -10328962 -2200619144017 2200619144025 -16 -24 39548 -39526 -13 39551 -39548 17 -109073 109068 -2200619150442 2200619150437 39526 -2200619296838 2200619257301 14 -269509 269507 -39537 39539 -39541 39545 -39547 -2200619150375 2200619150400 -25 -39543 16 -14 -46190 46190 -2200619150374 -23743 -235 2200614636860 4577035 10291591 -10291592 -75294 75253 -2200619171441 2200614594396 14868639 -14868639 4577045 -42991 42990 -42830 -3744294483 3744337316 -3744337316 3739760267 -3739760267 3744294349 -32328 75291 2200619114625 75294 -39538 -35757 35774 -35775 35755 -2200619174948 2200619174953 -35776 35754 -2200619150398 2200619150395 39529 -2200619213660 -811 2200619174948 -75302 -75295 35757 39544 -288225246694127351 288225246694127333 -10 -75296 35777 -35777 75304 39543 -39523 -2200619138367 2200619174122 -2200619174123 36 2200619174087 39534 -39536 35772 -35774 35775 -35773 -18 -35756 -2200619138366 2200619174120 39536 -75293 -2200619136514 2200619211805 -2200619214465 2200619174946 -35772 35776 32328 -32323 75288 -75288 32327 75289 -75287 35769 -19 -35752 75286 -75285 35753 -35754 35752 -35751 -11 -35748 35767 39518 -35755 -2200619174141 2200619174119 13 39514 -39515 -2200619174134 2200619174138 -2200619257164 2200619257148 -35758 75285 35765 -35764 35770 -2200619174951 2200619174942 -2200619174097 2200619174101 -2200619174944 2200619214465 -39522 -35765 35768 -35767 35748 -10447 46215 -35766 35764 2200629588986 -10331827 -35759 -109055 -2200619041366 2200619041367 148588 -309017 223302 10432 -73305 109063 -109063 109059 -2200619257307 2200619221548 -233734 233733 35747 -3433 3428 -46191 10439 32300 -42710 10408 -73304 -24056 97359 35749 75280 -42980 42981 -172643 97357 42982 -75284 -2200619138515 162 2200619138352 -32301 75276 -2200619213797 2200619213800 -294117 -2200618919662 2200619138499 -10393 42693 42975 -75276 -2200619221454 2200619296734 -75279 -2200619138353 -2200619213777 2200619138500 42974 -2200619213802 2200619213802 -2200619213798 -657 2200619214459 -237539 189699 47839 -47840 47840 -47839 47836 -47837 -2200619165940 75279 -7766 7764 4862 -4859 -2200619248894 2200619253753 4859 27441 -27441 32301 -4861 47834 -36738 36738 -47834 -47833 -47835 -42975 -85665 85666 -37833 37829 -7764 10345040 -2200629472974 2200619183532 -47831 -2200619166620 2200619139179 38537 36735 -47838 47838 -172639 135134 37506 -75283 75283 -42983 -42740 85722 75282 -42982 -12626 1922 -10334336 -128862 128862 -23970 -242080 -2200618855563 2200619097659 66943 -66943 -8338 -2200619138962 2200619147300 -2200619146683 2128153251156 72465895528 10358298 -10346962 2200619183540 -37505 37505 -73303 73303 -10446 -62858 73305 10367586 -10367587 10367588 -10377996 -86946 97355 11096 36744 -172637 97353 85672 -172635 172635 109051 73304 -233732 -2200618987814 2200619211109 -62867 2200619041368 -2200619148242 2200619148242 -160436 233742 32326 -32326 -160438 19674 -19674 -2200619041288 2200619146892 -643409 643407 -2200619139177 2200619174931 -679159 643408 -192746 192747 -12650 32325 -266066 233740 -73302 10364714 -10598450 309012 -309018 10598456 -10504416 137494 2206 10366628 -10366627 32324 -266071 233743 -2200619228798 2200619228797 -75275 -32325 75277 -309023 94047 10506327 -10366630 -2200619138600 2200619138602 -233747 233747 -233742 -2200618995055 39522 -266039 266039 -309008 -97081 10461796 -2200629503697 2200619138981 10600490 -2200629505339 2200629505334 -2022 2200629475001 -10291468 10292305 -10292303 -214974 214977 10291352 -10600374 253421 55603 -55604 2200629472974 2200629473275 -11565845 1220504 -2200629503894 30920 2200619127934 -10345040 10345343 -2200629504297 100 614 2200629505302 -10291461 10291466 -2200629505302 -10291469 10291469 -10366741 -233746 10600482 -10291466 -75270 -2200619138603 2200619138601 233748 -233736 233738 241 2200619213631 233746 -2200619138360 2200619138361 -233733 223286 10447 10367585 -10367586 -32300 -42748 42772 10367589 -10335289 -10407 -86954 97361 -129664 172628 -75269 10377984 -10292325 -172627 172626 -75266 -10437 10437 32302 -105605 -266034 223324 48182 37493 -85706 85705 -75265 75265 -42965 10346962 -10463198 10461276 -10356384 23969 -23969 23968 -266050 242081 -2200619097644 2200619097645 66931 -66931 -2200619147295 2200619138962 -72465887189 72465895522 -2200619146679 2200629504982 55589 -37492 -37773 -97351 124792 -124792 135888 -135886 97349 -86957 172614 -2200619121728 2200619164690 -2200619213665 -82959 2200619221362 266034 -10448 10378033 -10367585 -32303 -73306 105606 -105604 -2200619170671 -2200619164699 3554739 2200615611319 -1359 1354 -44318 44329 -76624 261172 -37816 10378 76623 -1362 -75261 75263 1357 10288096 -10288094 -76620 76637 -44313 -32324 76638 -44337 44320 -2200619214987 2200619215006 -76639 44322 148564 1379 76621 -38082 36719 -36719 32912 3803 -314384 -26 15 314398 -314408 -2200618899827 2200629503697 2200629504003 -3072 1652 -10288345 10288380 -10602774 -15 10602789 -2200629502605 2448 2200619211772 10288382 -10288381 -2200619214216 2200618899821 10602777 -10602788 -2200619014210 2200619014224 181645 10421138 -10602838 181698 -181698 314427 -314433 310392 -2200619207678 2200619211720 -314401 -10333765 -269022 181646 -181646 -2200618897763 2200618897769 10604168 -10422524 -181645 -181644 181647 10421103 37 -10602760 -2200619081477 2200619214234 10288160 -10420917 -2200618897780 2200619079425 132757 -132757 237209 10365543 -10365540 10365573 -10365573 10365542 -10365543 -55564 55564 -55563 55562 -1245279 1245279 -10365576 -10365544 77191 -77190 -10365542 10365545 -10365546 10365541 10288350 -10365541 10365576 -10288384 -4558476 4244068 10602788 -10602787 -2200619014209 2200619014157 10602839 -2200629500565 2200618897728 181697 -181700 52 -52 181648 10421141 314403 -10602839 314459 -314406 10602790 -2200629616999 2200619328616 -35 -10602729 314385 -36718 36720 1375 -149928 82368 2200619215814 -2200619215617 2200629501191 -10285574 -1376 10286951 1376 10285574 2506 2200619214241 10291448 -10291448 -2200619214240 3072 -2200629504460 2200629504460 -10288651 10290022 -10290020 10290020 -10290021 1359 -1358 -85710 -10292321 10291467 -2200619214452 2200619214455 10291461 10291344 -10291346 -55599 10347050 -10291449 10289439 55601 -55601 55604 55605 -75292 35781 -2200619174942 2200619174941 39524 -39540 -10442 85735 -72465922992 72465922992 39519 12 -2200619174144 -2200619174941 -39516 -2200619174139 2200619174139 39533 -12888908 12888908 -55616 -39542 2200619150381 39540 2200619183550 -12888917 12873650 15266 -55622 55631 -288223780701820745 -63 -1465993202738 1465993202738 -1465993402510 1465993402513 -1465993384575 1078021 -1078021 1465993384574 -1465992306554 1465992306553 -1465993402547 -1465993402543 2587624 -1049428 1049429 -1038876 -40986 -29534 -1465993332026 1465993332028 -2587619 -1095994 8065 21451 7405 8579 56661 19775 -90737 5723 -56662 -14300 1465993379285 -1465993288548 -76435 -14302 14299 1465993364986 -1465993308324 -70958 1465993379282 -1465993402439 -112 -76809 -15631 1465995968610 -1465993402553 23263 157220 1465995809689 -1465993366602 34470 1465995919649 -1465994894561 -1095607 -160049 18443 -21926 163534 1465995830121 -160960 198818 1465996000720 160046 3482 70523 -48954 -1038879 -1465993402544 -38769 1465995990169 -1465993402551 1465995791354 1465993241594 2587618 -171509 1038593 1465994893260 -1465995995760 1465995995759 4962 -840062 -38766 40820 -1079698 -1465994910477 -40816 -1049396 10517 1079697 1465994910475 -1465995971698 -78 288223780712110508 146215 -51234 -384124 621907 15263 -15263 15264 -15265 15262 -12888915 12888918 2200606407734 12849366 2200619150379 -16075 -10289423 -2200619183551 2200619183552 -39546 -20 -55620 16075 -39525 2200619213661 -39529 39541 -252861 252862 -16073 55615 10289425 -10289424 -2200619183550 2200619144009 -55617 26 10345014 -2200619158657 2200629505670 -10291434 10289995 -10289994 10291387 35 -10347033 10347033 -2200629505677 2200619211803 10291424 -10291423 10291423 -2200629505670 2200619158649 10347021 -10347022 -2200619273038 2200619273040 -203304 10550337 -10347030 -203307 203306 55602 -55608 55585 -2200619211750 2200619156146 -2200619156591 2200619136579 -183289 10548650 -10345340 10347027 -10347027 -203308 203307 -203306 203308 -203309 258911 -258912 -203305 203332 10346967 -10346997 -2200619158688 2200619158659 258912 10291201 -10346805 -213226 10560225 -10560256 268830 -268830 10560222 32 -10560255 9918 10550302 -10560226 10560221 -10560221 9921 -9921 -970889 11531111 -10560222 -11531111 1239721 -55596 -2200619273037 2200629620035 34 -2200629505889 2200629505887 2200614641531 -2200614641531 14864110 -34 -10291387 10291422 -10291424 -2200619328652 -2200619273039 2200619273038 268834 -10347032 10346999 -10346979 2200629505669 -1250216 1250216 10347020 -10519554 172534 -1250203 1305814 -1305789 1250225 -2200617865652 2200617865652 -3237427 3237390 11597248 10346998 -14834604 14834640 -14834639 3237387 -3237386 14832643 -14862457 29508 -2200629503678 33466 -10092 2200614647658 -2200614637566 2200614637567 -2200614671038 2200629504401 -11595973 11595256 717 -2200629473691 2200629473691 -2200629504607 33792 -31270 2200614668725 -2200614668775 2200629503415 -2200629503384 2200629503381 -264 -1746 -2200629503684 2200629504250 -14833213 14833213 132 -14833344 -2200614637569 2200614647659 -2200614671033 2200629504395 -2200629504401 2200629505656 -14834605 14834604 -14834641 -14834640 -2200614671052 2200629505658 -1245 -17 -14833345 14833363 -10321363 10321363 -4512001 14833346 -10321346 10321347 -10627016 10627033 1491 -2200629505884 2200614647653 -2200614637561 2200614637562 14834856 -14834856 14833347 -10320083 10320066 10321346 2200614647655 -2200614637563 2200614637563 14834855 -14834854 14833343 -14833343 14834853 -1489 -14833363 2200629503682 -14832643 -2200614637460 2200629471992 -11597145 11595820 -2200629501934 -41 2200629501936 -14833209 -2200614670690 2200614670690 -2200617878022 2200629473278 1806 -2200629474780 2200617877718 11597254 -1998 -1705 -14832901 14833208 11595973 -2200629504395 -2200614637567 2200614637568 14833361 -717 -2200629504415 2200614671052 1275 -14834637 -14833361 -2200614637456 -33790 2200629505852 -14834602 -2200614671250 2200614671250 -2200614639966 2200629473326 14833362 -14833362 -14833346 14833345 -10627018 10627016 10092 14833344 -2200629470821 2200614637459 -1280 -4511999 2200614637564 -14834853 -14833360 -14833342 2200629504611 14834641 -14834642 2200629505689 -1439 1393 -11597249 11597213 -2200629620035 -11597214 -2200618022824 2200629620039 -14834608 4274385 10560224 -10560224 -31 -10560223 9920 10550304 -4274386 4274388 -4284305 4284305 203566 -203567 10550335 -10550336 203567 -203565 10550334 -10346770 -4487872 4487874 3237392 11597215 -11597195 -2200617908441 -10346762 -1250476 11597236 -11597236 1250476 10345025 -10345038 -1250467 -2200619116158 2200619116128 -10519553 227876 10291643 -10291677 -55097 55098 -55101 15844 10328936 2200619183294 -39255 -213364 252620 -39238 39241 -39243 20 -46245 8517 37717 -72465923038 72465923028 -37704 37706 -37708 37715 -37716 -71377 148339 -76962 -231806 231805 -8504 46212 -37725 37725 -156010 193739 -193739 193735 -37726 37708 -37707 37729 -37731 37726 37711 -35793 -2200619136522 2200619211548 -39235 -2200619174973 2200619174985 -2200619174961 2200619139182 -2200619139182 2200619174971 39235 -39229 39232 -39232 -37730 -2200619141297 2200619180528 -76961 37728 -193740 193736 -156012 193732 -2200619174972 845 2200619174136 -35779 35794 -35794 35779 75029 -75029 35802 -35801 35797 -35799 35796 -35796 75030 -75030 75026 -39231 39234 -39250 -2200619150408 2200619114632 75025 -75022 32351 -32352 -3744262030 3754628906 -10291855 -75024 -2200619138615 -3739760310 3739760310 14868626 -10291853 10291853 -10291852 -39226 -21 -2200619174978 2200619174978 39230 -2200619213403 -810 2200619174979 39229 -39230 -109101 2200619296576 -39223 39226 39231 -39228 -2200619174126 2200619213365 -2200619174133 2200619174133 2200619213361 39240 -39233 39227 -39236 2200619174127 39238 -46237 -2200619127897 2200619174135 -2200619214208 2200619174977 -2200619174170 2200619174169 39246 37723 -193733 -156011 156012 -37728 76969 -232980 232980 37733 -2200619174984 2200619214212 -39252 37707 39252 -2200619189660 2200619189661 -37724 37721 -193709 155987 37722 -37721 193744 -2200619174975 2200619174973 76960 -37732 37730 -22 -213361 252615 -39251 -12849395 12888643 -39240 -109086 109099 -2200619257340 2200619257349 -2200619174128 2200619174128 -2200619174775 -10326416 10287179 10326416 -10326417 -39237 2200619214012 10291677 -2200629505689 10329488 -10329488 10290250 -10290249 10290249 -10290250 -39239 -46244 -72465876803 72465962289 -39242 -37723 39239 -55102 -2200619150406 2200619150411 -15844 10344780 2200619183295 -12888651 12873636 15015 -55107 55065 -55109 -10289670 -288223780701804184 78 -1465993219101 1465993219101 -1465992339202 -879904 -199814 -2571136 -1465993418925 48938 -48936 -21570 15825 1465993403089 2571258 -2571259 -1465993238424 1465993238425 -1465992339196 1465992339202 -1465993400446 181334 -199526 -2516815 288223780712094046 -10345055 -2200619275867 2200619275867 -146475 -384123 636913 -15011 15013 -15012 15010 -12888649 12873637 -2200619281381 2200619296396 -12888652 12849386 2200619150409 -15845 2200619183296 -39260 -37709 -76967 232979 2200619214218 37709 -37710 21863 -21865 -2200619150405 2200619189663 -76963 76964 -155988 232951 -76964 76962 -39259 15014 -55106 55115 -288223780701804105 -79 -1465993219100 24 -1465993418937 1465993418915 2571242 -2571257 -1465993418879 1038843 -1020905 1465992380059 -1465993418902 180454 -162515 -17974 1465993418932 1465993418930 
Potential of Offsets elements: 78.5619 92.5619 28.5619 40.5619 28.5619 860.562 28.5619 28.5619 1722.1 364.562 160.562 28.5619 28.5619 28.5619 28.5619 100.562 28.5619 28.5619 28.5619 28.5619 43.5619 28.5619 1296.56 28.5619 113.562 104.562 84.5619 1136.56 28.5619 370.562 28.5619 28.5619 28.5619 28.5619 28.5619 28.5619 28.5619 28.5619 1450.56 28.5619 28.5619 28.5619 31.5619 28.5619 250.562 28.5619 89.5619 950.562 28.5619 28.5619 28.5619 1220.4 28.5619 269.562 28.5619 298.562 436.562 468.562 794.562 64.5619 608.562 34.5619 28.5619 28.5619 28.5619 272.562 28.5619 28.5619 28.5619 28.5619 28.5619 28.5619 28.5619 28.5619 28.5619 28.5619 35.5619 28.5619 142.562 28.5619 217.562 28.5619 28.5619 28.5619 28.5619 28.5619 28.5619 264.562 28.5619 28.5619 28.5619 86.5619 28.5619 28.5619 192.562 434.562 63.5619 73.5619 28.5619 28.5619 28.5619 28.5619 28.5619 59.5619 34.5619 28.5619 28.5619 28.5619 28.5619 28.5619 28.5619 28.5619 28.5619 28.5619 28.5619 28.5619 28.5619 46.5619 28.5619 28.5619 34.5619 58.5619 28.5619 28.5619 92.5619 28.5619 28.5619 28.5619 28.5619 34.5619 32.5619 51.5619 28.5619 28.5619 28.5619 28.5619 28.5619 30.5619 28.5619 28.5619 28.5619 28.5619 28.5619 28.5619 28.5619 28.5619 28.5619 28.5619 28.5619 28.5619 28.5619 68.5619 28.5619 28.5619 28.5619 28.5619 1569.56 28.5619 38.5619 32.5619 28.5619 28.5619 28.5619 436.562 28.5619 127.562 28.5619 28.5619 66.5619 28.5619 28.5619 28.5619 298.562 28.5619 28.5619 34.5619 28.5619 69.5619 28.5619 28.5619 172.562 96.5619 63.5619 28.5619 28.5619 49.5619 28.5619 28.5619 28.5619 28.5619 28.5619 28.5619 199.562 138.562 28.5619 28.5619 28.5619 102.562 68.5619 28.5619 28.5619 28.5619 28.5619 28.5619 28.5619 28.5619 28.5619 28.5619 28.5619 28.5619 28.5619 28.5619 28.5619 28.5619 28.5619 28.5619 28.5619 28.5619 28.5619 28.5619 45.5619 28.5619 28.5619 40.5619 44.5619 34.5619 135.562 28.5619 28.5619 28.5619 232.562 78.5619 53.5619 28.5619 28.5619 28.5619 28.5619 28.5619 28.5619 28.5619 129.562 28.5619 28.5619 28.5619 28.5619 28.5619 28.5619 28.5619 28.5619 738.562 28.5619 28.5619 28.5619 28.5619 28.5619 28.5619 28.5619 38.5619 620.562 207.562 68.5619 151.562 28.5619 28.5619 28.5619 31.5619 204.562 28.5619 28.5619 28.5619 28.5619 28.5619 28.5619 28.5619 28.5619 28.5619 28.5619 28.5619 28.5619 28.5619 28.5619 28.5619 28.5619 28.5619 57.5619 28.5619 28.5619 28.5619 28.5619 28.5619 28.5619 30.5619 99.5619 363.562 28.5619 28.5619 28.5619 28.5619 28.5619 84.5619 308.562 28.5619 28.5619 28.5619 28.5619 28.5619 28.5619 28.5619 28.5619 28.5619 28.5619 28.5619 28.5619 28.5619 28.5619 28.5619 28.5619 58.5619 28.5619 28.5619 28.5619 28.5619 417.562 28.5619 28.5619 42.5619 171.562 202.562 91.5619 28.5619 28.5619 28.5619 28.5619 73.5619 136.562 28.5619 28.5619 28.5619 28.5619 28.5619 28.5619 28.5619 28.5619 28.5619 28.5619 28.5619 54.5619 28.5619 28.5619 28.5619 28.5619 28.5619 28.5619 28.5619 63.5619 28.5619 28.5619 28.5619 28.5619 28.5619 28.5619 247.562 80.5619 28.5619 28.5619 28.5619 96.5619 41.5619 1378.56 28.5619 28.5619 34.5619 28.5619 28.5619 28.5619 28.5619 28.5619 28.5619 28.5619 28.5619 28.5619 28.5619 54.5619 28.5619 28.5619 28.5619 28.5619 28.5619 34.5619 28.5619 28.5619 28.5619 28.5619 66.5619 28.5619 28.5619 28.5619 28.5619 485.562 213.562 61.5619 28.5619 28.5619 35.5619 28.5619 28.5619 28.5619 28.5619 28.5619 28.5619 42.5619 28.5619 235.562 624.562 28.5619 50.5619 136.562 104.562 28.5619 28.5619 28.5619 28.5619 28.5619 104.562 28.5619 28.5619 28.5619 28.5619 45.5619 28.5619 567.562 28.5619 39.5619 28.5619 28.5619 40.5619 28.5619 89.5619 28.5619 355.562 45.5619 28.5619 43.5619 28.5619 28.5619 28.5619 87.5619 29.5619 28.5619 85.5619 28.5619 28.5619 28.5619 28.5619 28.5619 130.562 28.5619 28.5619 28.5619 28.5619 28.5619 34.5619 28.5619 30.5619 58.5619 28.5619 44.5619 28.5619 28.5619 28.5619 58.5619 44.5619 39.5619 28.5619 28.5619 28.5619 28.5619 28.5619 28.5619 28.5619 28.5619 35.5619 28.5619 35.5619 28.5619 28.5619 28.5619 28.5619 28.5619 28.5619 28.5619 28.5619 28.5619 28.5619 28.5619 28.5619 28.5619 28.5619 28.5619 28.5619 28.5619 28.5619 28.5619 28.5619 28.5619 28.5619 78.5619 28.5619 28.5619 28.5619 28.5619 28.5619 28.5619 28.5619 28.5619 28.5619 28.5619 28.5619 28.5619 53.5619 28.5619 28.5619 28.5619 28.5619 28.5619 28.5619 28.5619 28.5619 28.5619 28.5619 40.5619 28.5619 28.5619 28.5619 28.5619 32.5619 28.5619 28.5619 28.5619 28.5619 74.5619 28.5619 28.5619 34.5619 37.5619 28.5619 28.5619 28.5619 28.5619 28.5619 28.5619 28.5619 28.5619 28.5619 28.5619 28.5619 28.5619 28.5619 28.5619 28.5619 28.5619 28.5619 28.5619 28.5619 109.562 28.5619 28.5619 28.5619 87.5619 33.5619 28.5619 28.5619 38.5619 28.5619 32.5619 28.5619 28.5619 28.5619 62.5619 28.5619 28.5619 28.5619 28.5619 28.5619 28.5619 28.5619 28.5619 28.5619 28.5619 28.5619 28.5619 28.5619 28.5619 28.5619 28.5619 28.5619 28.5619 28.5619 28.5619 29.5619 28.5619 28.5619 28.5619 28.5619 28.5619 28.5619 28.5619 28.5619 32.5619 151.562 28.5619 28.5619 28.5619 28.5619 28.5619 28.5619 28.5619 28.5619 28.5619 28.5619 28.5619 28.5619 28.5619 28.5619 28.5619 28.5619 35.5619 28.5619 28.5619 29.5619 35.5619 28.5619 28.5619 128.562 28.5619 28.5619 28.5619 28.5619 28.5619 28.5619 28.5619 28.5619 28.5619 67.5619 28.5619 28.5619 168.562 28.5619 28.5619 28.5619 28.5619 28.5619 28.5619 28.5619 28.5619 28.5619 28.5619 28.5619 28.5619 28.5619 28.5619 28.5619 28.5619 28.5619 28.5619 28.5619 42.5619 28.5619 28.5619 28.5619 28.5619 32.5619 28.5619 28.5619 29.5619 28.5619 28.5619 106.562 28.5619 28.5619 28.5619 28.5619 28.5619 28.5619 28.5619 28.5619 28.5619 28.5619 28.5619 28.5619 28.5619 28.5619 28.5619 28.5619 28.5619 28.5619 28.5619 47.5619 28.5619 28.5619 28.5619 28.5619 28.5619 28.5619 28.5619 28.5619 28.5619 28.5619 28.5619 28.5619 28.5619 121.562 28.5619 28.5619 70.5619 28.5619 28.5619 28.5619 28.5619 28.5619 28.5619 28.5619 28.5619 28.5619 28.5619 28.5619 28.5619 28.5619 28.5619 28.5619 28.5619 70.5619 28.5619 28.5619 28.5619 140.562 28.5619 28.5619 28.5619 28.5619 28.5619 28.5619 28.5619 29.5619 28.5619 71.5619 28.5619 28.5619 28.5619 29.5619 28.5619 28.5619 28.5619 28.5619 28.5619 28.5619 28.5619 28.5619 28.5619 28.5619 28.5619 28.5619 28.5619 28.5619 28.5619 28.5619 28.5619 28.5619 29.5619 28.5619 28.5619 28.5619 28.5619 28.5619 28.5619 28.5619 28.5619 28.5619 28.5619 28.5619 28.5619 28.5619 31.5619 29.5619 28.5619 28.5619 28.5619 28.5619 28.5619 28.5619 28.5619 28.5619 28.5619 28.5619 28.5619 28.5619 55.5619 170.562 28.5619 28.5619 80.5619 28.5619 249.562 138.562 28.5619 28.5619 28.5619 28.5619 28.5619 28.5619 28.5619 31.5619 28.5619 28.5619 212.562 28.5619 83.5619 59.5619 28.5619 28.5619 28.5619 226.562 28.5619 62.5619 60.5619 28.5619 28.5619 28.5619 28.5619 28.5619 28.5619 28.5619 28.5619 29.5619 28.5619 28.5619 28.5619 28.5619 28.5619 28.5619 28.5619 28.5619 28.5619 28.5619 28.5619 28.5619 28.5619 28.5619 40.5619 28.5619 29.5619 28.5619 28.5619 28.5619 28.5619 28.5619 28.5619 28.5619 29.5619 28.5619 28.5619 28.5619 35.5619 28.5619 28.5619 28.5619 28.5619 42.5619 28.5619 28.5619 195.562 28.5619 28.5619 28.5619 28.5619 152.562 28.5619 28.5619 28.5619 28.5619 28.5619 28.5619 106.562 30.5619 28.5619 77.5619 28.5619 28.5619 28.5619 28.5619 28.5619 28.5619 28.5619 153.562 28.5619 28.5619 28.5619 28.5619 28.5619 28.5619 28.5619 28.5619 28.5619 38.5619 203.562 28.5619 28.5619 28.5619 28.5619 28.5619 28.5619 28.5619 28.5619 33.5619 33.5619 28.5619 50.5619 154.562 40.5619 28.5619 28.5619 627.562 28.5619 28.5619 28.5619 28.5619 28.5619 28.5619 112.562 28.5619 28.5619 28.5619 28.5619 28.5619 28.5619 28.5619 28.5619 28.5619 65.5619 28.5619 28.5619 28.5619 28.5619 28.5619 28.5619 28.5619 28.5619 32.5619 28.5619 28.5619 29.5619 80.5619 28.5619 30.5619 28.5619 28.5619 28.5619 28.5619 28.5619 28.5619 28.5619 28.5619 28.5619 28.5619 28.5619 28.5619 28.5619 28.5619 28.5619 28.5619 28.5619 28.5619 28.5619 28.5619 28.5619 28.5619 28.5619 28.5619 28.5619 28.5619 28.5619 28.5619 28.5619 28.5619 28.5619 956.562 28.5619 28.5619 28.5619 28.5619 28.5619 28.5619 28.5619 39.5619 28.5619 28.5619 28.5619 28.5619 28.5619 28.5619 28.5619 28.5619 50.5619 85.5619 28.5619 28.5619 28.5619 28.5619 28.5619 28.5619 28.5619 28.5619 28.5619 28.5619 28.5619 28.5619 28.5619 28.5619 28.5619 39.5619 43.5619 28.5619 28.5619 28.5619 28.5619 28.5619 28.5619 28.5619 28.5619 28.5619 28.5619 28.5619 28.5619 28.5619 28.5619 28.5619 28.5619 28.5619 28.5619 28.5619 28.5619 28.5619 28.5619 28.5619 28.5619 28.5619 28.5619 28.5619 28.5619 28.5619 28.5619 28.5619 28.5619 28.5619 67.5619 28.5619 28.5619 28.5619 28.5619 28.5619 28.5619 28.5619 28.5619 28.5619 28.5619 28.5619 28.5619 28.5619 28.5619 28.5619 28.5619 28.5619 28.5619 28.5619 28.5619 28.5619 28.5619 28.5619 28.5619 28.5619 28.5619 28.5619 28.5619 28.5619 28.5619 28.5619 28.5619 29.5619 28.5619 28.5619 28.5619 28.5619 28.5619 28.5619 28.5619 28.5619 28.5619 28.5619 28.5619 28.5619 28.5619 28.5619 28.5619 28.5619 28.5619 28.5619 28.5619 28.5619 28.5619 28.5619 28.5619 28.5619 28.5619 28.5619 28.5619 28.5619 28.5619 28.5619 28.5619 28.5619 29.5619 279.562 55.5619 28.5619 28.5619 28.5619 28.5619 28.5619 28.5619 28.5619 28.5619 28.5619 28.5619 28.5619 28.5619 28.5619 28.5619 28.5619 708.562 118.562 28.5619 28.5619 28.5619 28.5619 28.5619 28.5619 28.5619 28.5619 28.5619 28.5619 28.5619 28.5619 28.5619 28.5619 28.5619 28.5619 82.5619 37.5619 28.5619 28.5619 28.5619 28.5619 28.5619 28.5619 28.5619 28.5619 28.5619 28.5619 28.5619 28.5619 28.5619 28.5619 28.5619 28.5619 28.5619 28.5619 34.5619 28.5619 28.5619 28.5619 28.5619 28.5619 28.5619 28.5619 28.5619 28.5619 28.5619 28.5619 28.5619 28.5619 55.5619 37.5619 80.5619 42.5619 28.5619 28.5619 28.5619 28.5619 28.5619 28.5619 28.5619 28.5619 28.5619 35.5619 28.5619 28.5619 28.5619 28.5619 28.5619 28.5619 28.5619 28.5619 28.5619 28.5619 28.5619 28.5619 28.5619 28.5619 28.5619 28.5619 28.5619 28.5619 28.5619 28.5619 79.5619 28.5619 28.5619 29.5619 28.5619 28.5619 28.5619 28.5619 28.5619 28.5619 28.5619 28.5619 28.5619 28.5619 28.5619 28.5619 28.5619 28.5619 28.5619 28.5619 28.5619 28.5619 28.5619 28.5619 28.5619 28.5619 28.5619 28.5619 28.5619 28.5619 28.5619 28.5619 28.5619 28.5619 180.562 28.5619 28.5619 28.5619 28.5619 28.5619 28.5619 28.5619 28.5619 28.5619 28.5619 28.5619 28.5619 28.5619 28.5619 28.5619 28.5619 28.5619 28.5619 28.5619 28.5619 86.5619 28.5619 28.5619 28.5619 28.5619 28.5619 28.5619 28.5619 28.5619 28.5619 28.5619 28.5619 28.5619 29.5619 28.5619 28.5619 28.5619 28.5619 28.5619 28.5619 28.5619 28.5619 28.5619 28.5619 28.5619 28.5619 28.5619 28.5619 28.5619 28.5619 28.5619 28.5619 28.5619 28.5619 28.5619 28.5619 28.5619 28.5619 28.5619 28.5619 28.5619 28.5619 28.5619 28.5619 28.5619 28.5619 132.562 92.5619 28.5619 28.5619 28.5619 28.5619 28.5619 28.5619 28.5619 28.5619 28.5619 28.5619 28.5619 28.5619 28.5619 28.5619 28.5619 87.5619 137.562 28.5619 28.5619 28.5619 43.5619 28.5619 28.5619 28.5619 28.5619 28.5619 28.5619 66.5619 28.5619 28.5619 28.5619 28.5619 28.5619 28.5619 30.5619 28.5619 28.5619 28.5619 28.5619 28.5619 28.5619 28.5619 28.5619 28.5619 28.5619 28.5619 28.5619 28.5619 28.5619 28.5619 28.5619 37.5619 28.5619 28.5619 28.5619 28.5619 28.5619 28.5619 28.5619 28.5619 28.5619 28.5619 28.5619 28.5619 28.5619 28.5619 28.5619 28.5619 39.5619 28.5619 28.5619 28.5619 28.5619 28.5619 28.5619 28.5619 28.5619 28.5619 28.5619 28.5619 28.5619 28.5619 28.5619 28.5619 28.5619 28.5619 112.562 28.5619 28.5619 28.5619 28.5619 28.5619 28.5619 28.5619 28.5619 28.5619 28.5619 28.5619 28.5619 28.5619 28.5619 28.5619 28.5619 35.5619 28.5619 28.5619 28.5619 28.5619 28.5619 47.5619 122.562 28.5619 28.5619 28.5619 28.5619 28.5619 28.5619 28.5619 28.5619 28.5619 156.562 28.5619 28.5619 28.5619 28.5619 28.5619 28.5619 28.5619 28.5619 28.5619 28.5619 28.5619 28.5619 28.5619 28.5619 28.5619 28.5619 53.5619 28.5619 28.5619 28.5619 28.5619 28.5619 28.5619 28.5619 28.5619 28.5619 28.5619 28.5619 28.5619 33.5619 28.5619 28.5619 28.5619 28.5619 28.5619 28.5619 28.5619 28.5619 28.5619 28.5619 28.5619 28.5619 28.5619 28.5619 28.5619 28.5619 28.5619 28.5619 32.5619 28.5619 36.5619 146.562 28.5619 28.5619 28.5619 28.5619 28.5619 229.562 28.5619 28.5619 28.5619 28.5619 28.5619 28.5619 28.5619 28.5619 28.5619 28.5619 28.5619 28.5619 32.5619 64.5619 28.5619 28.5619 28.5619 28.5619 28.5619 28.5619 28.5619 28.5619 28.5619 28.5619 32.5619 28.5619 28.5619 36.5619 28.5619 28.5619 28.5619 28.5619 28.5619 28.5619 28.5619 28.5619 28.5619 34.5619 28.5619 28.5619 28.5619 155.562 28.5619 28.5619 36.5619 28.5619 28.5619 28.5619 28.5619 28.5619 28.5619 30.5619 28.5619 28.5619 28.5619 28.5619 28.5619 28.5619 28.5619 28.5619 46.5619 44.5619 41.5619 28.5619 28.5619 28.5619 28.5619 28.5619 28.5619 28.5619 28.5619 28.5619 28.5619 28.5619 28.5619 28.5619 28.5619 29.5619 28.5619 28.5619 28.5619 128.562 28.5619 28.5619 28.5619 89.5619 42.5619 28.5619 28.5619 30.5619 28.5619 250.562 83.5619 28.5619 34.5619 32.5619 28.5619 28.5619 30.5619 28.5619 76.5619 28.5619 28.5619 28.5619 28.5619 28.5619 28.5619 28.5619 28.5619 28.5619 28.5619 28.5619 28.5619 28.5619 32.5619 28.5619 28.5619 28.5619 28.5619 28.5619 28.5619 28.5619 28.5619 28.5619 28.5619 28.5619 52.5619 28.5619 35.5619 35.5619 28.5619 28.5619 28.5619 92.5619 28.5619 28.5619 28.5619 28.5619 28.5619 28.5619 28.5619 28.5619 28.5619 28.5619 28.5619 28.5619 28.5619 32.5619 61.5619 42.5619 28.5619 28.5619 28.5619 28.5619 28.5619 28.5619 28.5619 28.5619 28.5619 28.5619 28.5619 28.5619 29.5619 87.5619 28.5619 28.5619 28.5619 28.5619 28.5619 28.5619 28.5619 28.5619 28.5619 28.5619 28.5619 28.5619 28.5619 28.5619 28.5619 28.5619 28.5619 28.5619 28.5619 28.5619 28.5619 28.5619 28.5619 28.5619 28.5619 28.5619 28.5619 28.5619 28.5619 28.5619 28.5619 28.5619 28.5619 35.5619 28.5619 28.5619 28.5619 28.5619 28.5619 28.5619 28.5619 28.5619 28.5619 28.5619 28.5619 28.5619 64.5619 28.5619 28.5619 28.5619 53.5619 50.5619 28.5619 28.5619 28.5619 28.5619 28.5619 28.5619 28.5619 28.5619 28.5619 28.5619 28.5619 161.562 28.5619 28.5619 28.5619 28.5619 48.5619 55.5619 28.5619 28.5619 28.5619 28.5619 28.5619 28.5619 28.5619 28.5619 28.5619 28.5619 28.5619 28.5619 28.5619 28.5619 28.5619 28.5619 38.5619 28.5619 28.5619 28.5619 28.5619 28.5619 28.5619 28.5619 28.5619 28.5619 28.5619 28.5619 28.5619 28.5619 28.5619 28.5619 34.5619 28.5619 28.5619 28.5619 28.5619 28.5619 28.5619 28.5619 28.5619 28.5619 28.5619 28.5619 28.5619 28.5619 28.5619 28.5619 28.5619 32.5619 28.5619 28.5619 28.5619 28.5619 28.5619 28.5619 28.5619 28.5619 28.5619 28.5619 28.5619 28.5619 28.5619 28.5619 28.5619 28.5619 172.562 28.5619 28.5619 28.5619 28.5619 28.5619 28.5619 28.5619 28.5619 28.5619 141.562 28.5619 28.5619 28.5619 28.5619 28.5619 28.5619 130.562 34.5619 28.5619 28.5619 28.5619 28.5619 28.5619 28.5619 28.5619 28.5619 28.5619 28.5619 28.5619 28.5619 28.5619 28.5619 28.5619 80.5619 91.5619 28.5619 28.5619 28.5619 28.5619 28.5619 28.5619 28.5619 28.5619 28.5619 28.5619 28.5619 28.5619 28.5619 35.5619 28.5619 169.562 28.5619 28.5619 28.5619 28.5619 28.5619 28.5619 28.5619 28.5619 28.5619 28.5619 28.5619 28.5619 28.5619 28.5619 28.5619 28.5619 534.562 34.5619 28.5619 28.5619 28.5619 28.5619 28.5619 28.5619 28.5619 28.5619 28.5619 28.5619 28.5619 28.5619 28.5619 28.5619 28.5619 982.562 28.5619 28.5619 28.5619 28.5619 28.5619 28.5619 28.5619 28.5619 28.5619 28.5619 28.5619 28.5619 28.5619 28.5619 28.5619 28.5619 52.5619 28.5619 28.5619 28.5619 28.5619 28.5619 28.5619 28.5619 28.5619 28.5619 28.5619 28.5619 28.5619 39.5619 28.5619 28.5619 123.562 131.562 28.5619 28.5619 28.5619 28.5619 28.5619 28.5619 28.5619 28.5619 28.5619 28.5619 28.5619 28.5619 28.5619 28.5619 28.5619 28.5619 95.5619 28.5619 28.5619 28.5619 28.5619 28.5619 28.5619 28.5619 28.5619 28.5619 28.5619 28.5619 28.5619 28.5619 28.5619 82.5619 47.5619 28.5619 28.5619 28.5619 28.5619 28.5619 28.5619 28.5619 28.5619 28.5619 28.5619 39.5619 28.5619 28.5619 28.5619 28.5619 28.5619 28.5619 28.5619 340.562 33.5619 28.5619 28.5619 28.5619 28.5619 28.5619 28.5619 28.5619 28.5619 28.5619 28.5619 28.5619 28.5619 28.5619 28.5619 28.5619 28.5619 28.5619 28.5619 28.5619 28.5619 28.5619 28.5619 28.5619 28.5619 28.5619 28.5619 28.5619 28.5619 28.5619 28.5619 28.5619 28.5619 1093.56 70.5619 28.5619 28.5619 28.5619 28.5619 28.5619 28.5619 28.5619 28.5619 28.5619 28.5619 37.5619 44.5619 28.5619 28.5619 28.5619 28.5619 28.5619 28.5619 28.5619 28.5619 28.5619 28.5619 28.5619 28.5619 28.5619 28.5619 28.5619 28.5619 28.5619 28.5619 28.5619 28.5619 38.5619 28.5619 28.5619 28.5619 28.5619 28.5619 28.5619 28.5619 28.5619 28.5619 28.5619 28.5619 32.5619 28.5619 28.5619 28.5619 28.5619 449.562 28.5619 28.5619 28.5619 28.5619 28.5619 28.5619 28.5619 28.5619 28.5619 28.5619 28.5619 28.5619 28.5619 28.5619 28.5619 28.5619 99.5619 29.5619 28.5619 28.5619 28.5619 28.5619 28.5619 28.5619 28.5619 28.5619 28.5619 28.5619 28.5619 58.5619 28.5619 40.5619 50.5619 28.5619 28.5619 28.5619 28.5619 28.5619 28.5619 28.5619 28.5619 28.5619 28.5619 28.5619 28.5619 28.5619 28.5619 28.5619 28.5619 28.5619 51.5619 64.5619 28.5619 28.5619 28.5619 28.5619 28.5619 28.5619 28.5619 28.5619 28.5619 162.562 28.5619 28.5619 34.5619 30.5619 30.5619 28.5619 28.5619 28.5619 28.5619 28.5619 28.5619 28.5619 28.5619 28.5619 28.5619 28.5619 28.5619 28.5619 28.5619 28.5619 34.5619 28.5619 28.5619 72.5619 28.5619 28.5619 28.5619 28.5619 28.5619 28.5619 28.5619 28.5619 28.5619 28.5619 28.5619 41.5619 28.5619 44.5619 112.562 28.5619 28.5619 28.5619 28.5619 28.5619 28.5619 28.5619 28.5619 28.5619 28.5619 28.5619 28.5619 28.5619 28.5619 28.5619 28.5619 28.5619 28.5619 28.5619 172.562 284.562 28.5619 28.5619 28.5619 28.5619 28.5619 28.5619 28.5619 28.5619 28.5619 29.5619 28.5619 28.5619 48.5619 28.5619 28.5619 28.5619 28.5619 28.5619 28.5619 28.5619 28.5619 28.5619 28.5619 28.5619 28.5619 28.5619 28.5619 28.5619 28.5619 28.5619 30.5619 180.562 72.5619 28.5619 28.5619 28.5619 28.5619 28.5619 28.5619 35.5619 28.5619 28.5619 28.5619 28.5619 28.5619 28.5619 28.5619 28.5619 28.5619 28.5619 28.5619 28.5619 28.5619 30.5619 28.5619 56.5619 28.5619 28.5619 28.5619 28.5619 28.5619 28.5619 28.5619 28.5619 28.5619 28.5619 42.5619 28.5619 28.5619 28.5619 
rewards of Offsets elements: 50 64 0 12 0 832 0 0 1722 336 132 0 0 0 0 72 0 0 0 0 15 0 1268 0 85 76 56 1108 0 342 0 0 0 0 0 0 0 0 1422 0 0 0 3 0 222 0 61 922 0 0 0 1215 0 241 0 270 408 440 766 36 580 6 0 0 0 244 0 0 0 0 0 0 0 0 0 0 7 0 114 0 189 0 0 0 0 0 0 236 0 0 0 58 0 0 164 406 35 45 0 0 0 0 0 31 6 0 0 0 0 0 0 0 0 0 0 0 0 18 0 0 6 30 0 0 64 0 0 0 0 6 4 23 0 0 0 0 0 2 0 0 0 0 0 0 0 0 0 0 0 0 0 40 0 0 0 0 1541 0 10 4 0 0 0 408 0 99 0 0 38 0 0 0 270 0 0 6 0 41 0 0 144 68 35 0 0 21 0 0 0 0 0 0 171 110 0 0 0 74 40 0 0 0 0 0 0 0 0 0 0 0 0 0 0 0 0 0 0 0 0 0 17 0 0 12 16 6 107 0 0 0 204 50 25 0 0 0 0 0 0 0 101 0 0 0 0 0 0 0 0 710 0 0 0 0 0 0 0 10 592 179 40 123 0 0 0 3 176 0 0 0 0 0 0 0 0 0 0 0 0 0 0 0 0 0 29 0 0 0 0 0 0 2 71 335 0 0 0 0 0 56 280 0 0 0 0 0 0 0 0 0 0 0 0 0 0 0 0 30 0 0 0 0 389 0 0 14 143 174 63 0 0 0 0 45 108 0 0 0 0 0 0 0 0 0 0 0 26 0 0 0 0 0 0 0 35 0 0 0 0 0 0 219 52 0 0 0 68 13 1350 0 0 6 0 0 0 0 0 0 0 0 0 0 26 0 0 0 0 0 6 0 0 0 0 38 0 0 0 0 457 185 33 0 0 7 0 0 0 0 0 0 14 0 207 596 0 22 108 76 0 0 0 0 0 76 0 0 0 0 17 0 539 0 11 0 0 12 0 61 0 327 17 0 15 0 0 0 59 1 0 57 0 0 0 0 0 102 0 0 0 0 0 6 0 2 30 0 16 0 0 0 30 16 11 0 0 0 0 0 0 0 0 7 0 7 0 0 0 0 0 0 0 0 0 0 0 0 0 0 0 0 0 0 0 0 0 0 50 0 0 0 0 0 0 0 0 0 0 0 0 25 0 0 0 0 0 0 0 0 0 0 12 0 0 0 0 4 0 0 0 0 46 0 0 6 9 0 0 0 0 0 0 0 0 0 0 0 0 0 0 0 0 0 0 0 81 0 0 0 59 5 0 0 10 0 4 0 0 0 34 0 0 0 0 0 0 0 0 0 0 0 0 0 0 0 0 0 0 0 0 1 0 0 0 0 0 0 0 0 4 123 0 0 0 0 0 0 0 0 0 0 0 0 0 0 0 0 7 0 0 1 7 0 0 100 0 0 0 0 0 0 0 0 0 39 0 0 140 0 0 0 0 0 0 0 0 0 0 0 0 0 0 0 0 0 0 0 14 0 0 0 0 4 0 0 1 0 0 78 0 0 0 0 0 0 0 0 0 0 0 0 0 0 0 0 0 0 0 19 0 0 0 0 0 0 0 0 0 0 0 0 0 93 0 0 42 0 0 0 0 0 0 0 0 0 0 0 0 0 0 0 0 42 0 0 0 112 0 0 0 0 0 0 0 1 0 43 0 0 0 1 0 0 0 0 0 0 0 0 0 0 0 0 0 0 0 0 0 0 1 0 0 0 0 0 0 0 0 0 0 0 0 0 3 1 0 0 0 0 0 0 0 0 0 0 0 0 27 142 0 0 52 0 221 110 0 0 0 0 0 0 0 3 0 0 184 0 55 31 0 0 0 198 0 34 32 0 0 0 0 0 0 0 0 1 0 0 0 0 0 0 0 0 0 0 0 0 0 0 12 0 1 0 0 0 0 0 0 0 1 0 0 0 7 0 0 0 0 14 0 0 167 0 0 0 0 124 0 0 0 0 0 0 78 2 0 49 0 0 0 0 0 0 0 125 0 0 0 0 0 0 0 0 0 10 175 0 0 0 0 0 0 0 0 5 5 0 22 126 12 0 0 599 0 0 0 0 0 0 84 0 0 0 0 0 0 0 0 0 37 0 0 0 0 0 0 0 0 4 0 0 1 52 0 2 0 0 0 0 0 0 0 0 0 0 0 0 0 0 0 0 0 0 0 0 0 0 0 0 0 0 0 0 0 0 0 928 0 0 0 0 0 0 0 11 0 0 0 0 0 0 0 0 22 57 0 0 0 0 0 0 0 0 0 0 0 0 0 0 0 11 15 0 0 0 0 0 0 0 0 0 0 0 0 0 0 0 0 0 0 0 0 0 0 0 0 0 0 0 0 0 0 0 0 0 39 0 0 0 0 0 0 0 0 0 0 0 0 0 0 0 0 0 0 0 0 0 0 0 0 0 0 0 0 0 0 0 0 1 0 0 0 0 0 0 0 0 0 0 0 0 0 0 0 0 0 0 0 0 0 0 0 0 0 0 0 0 0 0 0 0 1 251 27 0 0 0 0 0 0 0 0 0 0 0 0 0 0 0 680 90 0 0 0 0 0 0 0 0 0 0 0 0 0 0 0 0 54 9 0 0 0 0 0 0 0 0 0 0 0 0 0 0 0 0 0 0 6 0 0 0 0 0 0 0 0 0 0 0 0 0 27 9 52 14 0 0 0 0 0 0 0 0 0 7 0 0 0 0 0 0 0 0 0 0 0 0 0 0 0 0 0 0 0 0 51 0 0 1 0 0 0 0 0 0 0 0 0 0 0 0 0 0 0 0 0 0 0 0 0 0 0 0 0 0 0 0 0 0 152 0 0 0 0 0 0 0 0 0 0 0 0 0 0 0 0 0 0 0 0 58 0 0 0 0 0 0 0 0 0 0 0 0 1 0 0 0 0 0 0 0 0 0 0 0 0 0 0 0 0 0 0 0 0 0 0 0 0 0 0 0 0 0 0 0 0 104 64 0 0 0 0 0 0 0 0 0 0 0 0 0 0 0 59 109 0 0 0 15 0 0 0 0 0 0 38 0 0 0 0 0 0 2 0 0 0 0 0 0 0 0 0 0 0 0 0 0 0 0 9 0 0 0 0 0 0 0 0 0 0 0 0 0 0 0 0 11 0 0 0 0 0 0 0 0 0 0 0 0 0 0 0 0 0 84 0 0 0 0 0 0 0 0 0 0 0 0 0 0 0 0 7 0 0 0 0 0 19 94 0 0 0 0 0 0 0 0 0 128 0 0 0 0 0 0 0 0 0 0 0 0 0 0 0 0 25 0 0 0 0 0 0 0 0 0 0 0 0 5 0 0 0 0 0 0 0 0 0 0 0 0 0 0 0 0 0 0 4 0 8 118 0 0 0 0 0 201 0 0 0 0 0 0 0 0 0 0 0 0 4 36 0 0 0 0 0 0 0 0 0 0 4 0 0 8 0 0 0 0 0 0 0 0 0 6 0 0 0 127 0 0 8 0 0 0 0 0 0 2 0 0 0 0 0 0 0 0 18 16 13 0 0 0 0 0 0 0 0 0 0 0 0 0 0 1 0 0 0 100 0 0 0 61 14 0 0 2 0 222 55 0 6 4 0 0 2 0 48 0 0 0 0 0 0 0 0 0 0 0 0 0 4 0 0 0 0 0 0 0 0 0 0 0 24 0 7 7 0 0 0 64 0 0 0 0 0 0 0 0 0 0 0 0 0 4 33 14 0 0 0 0 0 0 0 0 0 0 0 0 1 59 0 0 0 0 0 0 0 0 0 0 0 0 0 0 0 0 0 0 0 0 0 0 0 0 0 0 0 0 0 0 0 0 0 7 0 0 0 0 0 0 0 0 0 0 0 0 36 0 0 0 25 22 0 0 0 0 0 0 0 0 0 0 0 133 0 0 0 0 20 27 0 0 0 0 0 0 0 0 0 0 0 0 0 0 0 0 10 0 0 0 0 0 0 0 0 0 0 0 0 0 0 0 6 0 0 0 0 0 0 0 0 0 0 0 0 0 0 0 0 4 0 0 0 0 0 0 0 0 0 0 0 0 0 0 0 0 144 0 0 0 0 0 0 0 0 0 113 0 0 0 0 0 0 102 6 0 0 0 0 0 0 0 0 0 0 0 0 0 0 0 52 63 0 0 0 0 0 0 0 0 0 0 0 0 0 7 0 141 0 0 0 0 0 0 0 0 0 0 0 0 0 0 0 0 506 6 0 0 0 0 0 0 0 0 0 0 0 0 0 0 0 954 0 0 0 0 0 0 0 0 0 0 0 0 0 0 0 0 24 0 0 0 0 0 0 0 0 0 0 0 0 11 0 0 95 103 0 0 0 0 0 0 0 0 0 0 0 0 0 0 0 0 67 0 0 0 0 0 0 0 0 0 0 0 0 0 0 54 19 0 0 0 0 0 0 0 0 0 0 11 0 0 0 0 0 0 0 312 5 0 0 0 0 0 0 0 0 0 0 0 0 0 0 0 0 0 0 0 0 0 0 0 0 0 0 0 0 0 0 0 0 1065 42 0 0 0 0 0 0 0 0 0 0 9 16 0 0 0 0 0 0 0 0 0 0 0 0 0 0 0 0 0 0 0 0 10 0 0 0 0 0 0 0 0 0 0 0 4 0 0 0 0 421 0 0 0 0 0 0 0 0 0 0 0 0 0 0 0 0 71 1 0 0 0 0 0 0 0 0 0 0 0 30 0 12 22 0 0 0 0 0 0 0 0 0 0 0 0 0 0 0 0 0 23 36 0 0 0 0 0 0 0 0 0 134 0 0 6 2 2 0 0 0 0 0 0 0 0 0 0 0 0 0 0 0 6 0 0 44 0 0 0 0 0 0 0 0 0 0 0 13 0 16 84 0 0 0 0 0 0 0 0 0 0 0 0 0 0 0 0 0 0 0 144 256 0 0 0 0 0 0 0 0 0 1 0 0 20 0 0 0 0 0 0 0 0 0 0 0 0 0 0 0 0 0 2 152 44 0 0 0 0 0 0 7 0 0 0 0 0 0 0 0 0 0 0 0 0 2 0 28 0 0 0 0 0 0 0 0 0 0 14 0 0 0 Printing Sanity3
offset_index value2255
offset list size2255
reward size2255
potential size2255
-----------------------------------------------------------------------------------------------------------------------------------------------------------------------------------------------------

DRAM Statistics
 CHANNEL 0
 RQ ROW_BUFFER_HIT:         38  ROW_BUFFER_MISS:        760
 DBUS_CONGESTED:          0
 WQ ROW_BUFFER_HIT:          0  ROW_BUFFER_MISS:          0  FULL:          0

 AVG_CONGESTED_CYCLE: -
 All warmup complete: 2
Channel 0 Bank busy for read cycles: 0
Channel 0 Bank busy for write cycles: 0
Channel 0
Rank 0
0banks busy for read cycles: 666320468
0banks busy for write cycles: 0
1banks busy for read cycles: 98844
1banks busy for write cycles: 0
2banks busy for read cycles: 8060
2banks busy for write cycles: 0
3banks busy for read cycles: 312
3banks busy for write cycles: 0
4banks busy for read cycles: 0
4banks busy for write cycles: 0
5banks busy for read cycles: 0
5banks busy for write cycles: 0
6banks busy for read cycles: 0
6banks busy for write cycles: 0
7banks busy for read cycles: 0
7banks busy for write cycles: 0
8banks busy for read cycles: 0
8banks busy for write cycles: 0

CPU 0 Branch Prediction Accuracy: 99.9103% MPKI: 0.159245 Average ROB Occupancy at Mispredict: 31.6198
Branch types
NOT_BRANCH: 164491950 82.246%
BRANCH_DIRECT_JUMP: 1952659 0.976329%
BRANCH_INDIRECT: 12737379 6.36869%
BRANCH_CONDITIONAL: 10931953 5.46598%
BRANCH_DIRECT_CALL: 4153390 2.07669%
BRANCH_INDIRECT_CALL: 789644 0.394822%
BRANCH_RETURN: 4943007 2.4715%
BRANCH_OTHER: 0 0%

DRAM PAGES: 1048576
Allocated PAGES: 1253
