
*** ChampSim Multicore Out-of-Order Simulator ***

Warmup Instructions: 50000000
Simulation Instructions: 200000000
Number of CPUs: 1
LLC sets: 2048
LLC ways: 16
Off-chip DRAM Size: 4096 MB Channels: 1 Width: 64-bit Data Rate: 6400 MT/s
CPU 0 runs traces/spec2k17/srv_50.champsimtrace.xz
.xz
BTB has LRU replacement policy
ITLB has LRU replacement policy
DTLB has LRU replacement policy
STLB has LRU replacement policy
L1I has LRU replacement policy
L1D has LRU replacement policy
Initialize SRRIP state for L2C
Initialize DRRIP state for LLC
Offsets elements: 
Potential of Offsets elements: 
rewards of Offsets elements: 
Printing Sanity1
offset list size2615
Offsets elements: 
Potential of Offsets elements: 
rewards of Offsets elements: 0 0 746 0 0 711 1169 0 222 1813 281 0 308 0 0 0 179 0 0 0 0 0 32 62 0 1486 0 0 0 2 0 14 0 5 506 0 0 0 0 0 0 0 0 0 0 67 0 0 0 907 0 0 0 0 0 1114 7726 1158 890 884 0 0 0 0 0 0 0 0 0 0 0 0 0 0 0 0 0 0 0 0 0 0 110 0 0 10 0 0 0 0 0 0 0 166 0 0 0 0 0 0 0 0 0 0 0 0 0 0 0 0 0 0 0 0 0 0 0 0 0 0 0 0 0 0 0 0 0 0 0 0 0 0 0 0 0 0 0 0 0 356 0 0 0 0 0 0 0 0 0 0 0 0 0 0 0 0 0 0 0 0 0 0 0 0 0 0 0 0 0 0 0 0 0 30 0 0 0 0 0 0 0 0 0 0 0 0 0 0 0 0 0 0 0 0 0 0 25 10 0 0 0 0 0 0 0 0 0 0 0 0 0 0 0 0 0 0 0 0 0 0 0 21 79 0 0 0 0 107 0 0 0 1169 0 0 0 0 0 0 0 0 82 0 0 0 0 0 0 0 0 0 0 0 0 0 0 0 0 0 0 0 0 0 0 0 0 0 0 296 0 0 0 34 4 3 0 10 0 0 0 0 0 0 0 625 0 0 60 0 0 0 0 0 58 0 0 0 0 63 0 0 0 0 0 0 0 0 0 0 0 0 0 250 0 0 218 0 0 3 0 0 0 0 0 0 0 0 370 0 0 0 0 0 0 0 143 0 0 0 0 0 2 38 0 0 0 1 0 0 0 3 0 0 66 4 0 30 40 0 0 0 0 0 0 0 0 0 0 0 0 0 0 0 0 1 0 0 0 0 0 0 0 0 0 0 0 0 0 0 0 0 0 0 1 0 0 0 0 0 0 0 0 0 0 0 0 6 0 0 0 69 0 0 0 0 0 0 0 0 0 0 0 0 0 0 0 0 0 0 0 0 0 0 0 0 0 0 0 0 0 0 0 0 0 0 10 0 0 0 0 0 0 0 0 0 0 0 0 0 0 0 0 0 0 0 0 0 0 0 0 0 122 84 0 0 944 0 0 0 0 0 0 0 0 0 0 0 0 0 0 0 0 0 0 0 0 0 0 0 0 0 0 0 0 0 0 0 0 0 0 0 0 0 0 0 0 0 0 0 0 0 0 0 0 0 0 0 0 0 0 0 0 0 0 0 0 0 0 0 0 0 0 0 0 0 0 0 0 0 0 0 0 0 0 0 1114 0 0 0 10 4 0 6 0 0 0 0 0 0 0 0 0 0 0 0 0 0 0 0 0 0 0 0 0 1178 0 0 0 0 0 0 0 0 0 0 0 0 0 0 0 0 0 0 0 0 0 0 1450 1093 565 540 0 0 80 0 0 0 0 0 0 0 0 0 0 0 0 0 0 0 0 0 0 0 0 0 0 0 0 0 0 2 20 0 0 0 0 0 0 0 0 0 0 0 0 0 0 684 553 0 0 0 0 0 0 0 0 0 0 0 0 0 0 0 0 0 0 0 1011 970 1723 798 0 0 0 0 0 525 2 0 0 0 0 0 0 0 0 0 0 0 0 0 0 0 4 15 0 0 0 0 0 22 20 0 0 0 0 0 49 0 0 0 0 1 0 0 0 0 0 0 0 0 0 0 0 0 0 0 0 0 0 0 0 0 0 0 0 1649 0 0 47 61 2 0 0 222 0 0 0 0 58 35 3 0 8 0 0 0 0 0 0 0 0 0 0 0 0 0 11 0 0 1 0 0 0 0 1 0 0 16 0 0 0 0 0 0 3 0 0 0 0 0 0 0 0 0 0 0 0 0 0 0 0 68 16 0 0 0 0 0 0 0 0 0 0 0 0 0 0 0 0 728 0 0 0 0 0 0 0 247 0 0 1 1 0 0 34 0 7 0 118 0 0 0 0 0 2 0 0 0 0 0 0 0 15 3 0 32 0 0 0 0 30 0 0 0 0 74 1 0 0 0 0 0 0 0 0 0 0 0 0 0 0 0 0 0 0 0 0 0 0 0 0 0 0 0 0 0 0 0 0 0 0 0 0 0 0 0 0 0 0 0 0 0 0 0 0 0 705 728 0 0 0 0 0 0 0 0 0 356 0 0 0 0 0 0 0 0 0 0 0 0 0 0 0 0 0 0 76 4 0 0 0 0 0 0 0 4 0 0 0 0 0 0 0 0 0 0 0 16 0 0 0 0 0 0 0 0 0 3 0 0 0 0 1 0 0 0 0 0 0 0 0 0 0 0 0 0 0 460 0 0 0 259 0 0 0 0 0 0 0 93 0 0 0 0 0 0 0 0 0 0 0 61 0 143 1 3 0 0 0 0 21 0 23 0 0 0 71 0 0 0 0 0 0 0 0 0 0 0 0 0 0 0 0 0 0 0 0 0 0 0 0 0 0 0 0 0 0 0 0 0 0 0 0 0 0 0 0 0 0 0 0 0 0 0 0 0 0 0 0 0 0 0 0 0 0 0 0 0 0 0 0 0 0 0 0 0 0 0 1235 0 0 0 0 0 12 0 0 0 3 0 0 0 0 0 0 0 0 0 0 0 0 0 0 0 0 0 0 0 0 0 0 0 0 0 0 0 0 0 239 0 0 0 0 544 0 0 0 0 0 0 12 0 0 0 0 0 0 0 0 0 0 0 0 0 0 0 0 0 0 0 0 0 0 0 0 0 0 0 0 0 0 0 0 0 0 0 0 0 0 0 0 0 0 0 0 0 0 0 0 0 0 0 0 0 0 0 5 0 0 0 0 0 0 0 0 0 1 6 0 0 0 0 0 0 0 0 0 0 0 0 0 0 0 0 0 0 0 0 0 0 0 2 0 0 0 0 0 0 0 0 0 46 0 0 6 0 0 0 0 0 0 20 0 0 0 0 0 0 0 0 9 0 81 0 0 0 0 0 0 0 0 0 0 0 0 0 0 0 0 0 0 0 0 0 0 0 0 0 1755 0 0 0 0 0 0 0 0 0 0 0 0 0 0 0 0 0 0 0 0 0 0 0 0 0 0 0 0 43 0 0 0 0 0 0 0 28 0 0 0 0 0 0 0 0 0 0 0 0 0 0 0 0 0 0 9 30 0 0 0 0 5 5 0 0 0 0 1 0 0 0 0 0 0 0 0 129 0 0 0 0 6 40 0 0 0 0 0 0 0 0 0 0 0 0 0 0 0 0 0 0 4 3 0 68 0 0 0 0 0 0 0 0 0 0 0 0 0 0 0 0 0 0 0 1 0 0 0 0 0 12 0 0 0 0 0 0 1 0 0 0 0 0 0 0 1008 0 0 0 0 0 0 0 0 0 0 0 0 0 0 0 0 0 0 0 837 790 0 0 0 0 0 0 0 0 0 0 0 0 0 0 0 13 0 168 6 0 0 0 0 0 0 0 8 0 0 0 0 105 63 85 0 0 80 11 0 0 4 0 0 0 0 0 0 0 0 0 10 0 0 0 154 0 0 0 0 0 0 0 0 0 0 180 767 4 0 0 0 0 0 0 0 0 0 0 0 0 0 0 40 0 0 0 0 0 0 0 0 0 0 0 0 0 0 0 0 0 0 0 0 0 6 0 0 0 0 57 0 0 0 0 6 0 0 0 3 8 0 0 0 0 0 0 0 0 0 0 0 0 0 0 0 0 0 0 0 0 0 0 0 0 0 0 0 0 0 0 0 0 0 0 0 0 0 0 0 0 0 0 0 0 0 0 0 0 0 0 0 0 0 1 0 0 0 0 0 0 0 0 0 0 0 0 1 0 0 0 0 0 0 0 0 1 0 79 0 0 0 0 0 0 0 0 0 0 0 0 0 0 0 0 0 0 136 0 0 0 0 42 0 0 0 0 0 0 0 0 0 0 0 0 0 0 0 0 0 0 0 0 0 0 0 0 0 0 0 0 0 0 0 0 339 0 0 0 0 0 0 0 0 0 0 60 72 0 0 0 0 0 0 0 0 0 0 0 0 0 0 0 0 0 0 0 0 0 0 0 0 0 0 0 0 0 0 0 0 0 0 0 0 0 0 0 0 0 0 0 0 0 0 0 0 0 0 0 0 0 0 0 0 0 0 0 0 0 0 0 0 0 0 0 0 0 0 0 0 0 0 0 0 872 0 0 0 0 0 0 0 0 0 783 0 0 0 0 0 0 0 0 0 0 0 0 0 0 0 0 11 0 0 0 0 54 41 34 0 0 0 0 0 0 0 0 0 0 0 0 0 0 0 0 0 0 0 0 0 0 0 0 0 0 0 0 0 1 4 17 0 0 0 0 0 10 0 0 0 0 0 0 0 0 0 0 0 0 0 0 0 0 0 4 0 0 0 0 0 0 0 0 0 0 0 0 0 0 0 0 0 0 0 0 0 0 0 0 0 0 0 0 0 0 0 0 0 0 0 0 0 0 0 0 0 0 0 0 22 3 0 0 0 0 0 0 0 0 0 0 0 0 0 0 0 0 0 0 0 0 1848 0 0 0 0 0 0 0 0 0 0 0 0 0 0 0 0 0 0 0 0 0 0 0 0 0 0 0 0 0 0 0 0 0 0 0 0 0 0 0 0 0 0 0 0 0 0 0 0 0 0 0 0 0 0 0 0 0 0 0 0 0 0 0 0 0 0 0 0 0 0 0 0 0 0 0 0 0 0 0 0 0 0 0 0 0 0 0 0 0 0 0 0 0 0 0 0 0 0 0 0 0 0 5 0 18 0 0 0 0 0 0 0 108 0 0 0 0 0 0 0 0 0 6 4 0 0 0 0 9 5 3 0 0 16 780 30 0 0 72 0 0 0 12 18 0 0 0 0 0 0 0 0 0 0 0 0 0 0 0 0 0 0 0 0 0 1 0 0 63 0 0 0 0 10 0 0 0 261 0 0 0 0 12 0 0 0 0 0 0 0 0 0 0 80 0 0 330 0 0 0 0 0 0 0 0 0 0 0 0 0 0 0 0 0 0 0 0 0 0 0 0 0 0 0 0 0 0 0 0 0 0 0 0 0 0 0 0 0 0 0 0 0 0 0 0 0 0 0 0 0 0 0 0 0 0 0 0 0 0 0 0 0 0 0 0 0 180 0 0 0 0 0 0 0 0 0 0 99 0 0 0 0 0 0 0 0 0 0 0 0 0 0 0 0 0 0 0 0 0 0 0 0 0 0 0 0 0 0 0 0 0 0 0 0 0 0 0 0 0 0 0 0 0 0 0 0 0 0 1 161 0 5 6 0 153 0 1 8 0 17 2 0 0 2 0 0 0 0 0 0 0 0 0 0 49 0 8 0 0 0 4 0 0 0 0 8 0 0 0 0 0 0 0 0 0 0 0 0 0 0 0 0 0 0 0 0 0 0 0 0 0 0 0 0 0 0 0 0 0 0 0 0 0 0 0 0 0 4 0 0 2 0 0 0 0 0 0 0 0 12 0 0 0 0 0 0 0 0 0 0 0 195 0 0 0 33 0 0 16 0 0 0 0 0 0 0 60 0 0 2 0 0 0 0 0 0 0 0 0 0 0 0 0 0 0 0 841 0 0 0 0 0 0 0 0 0 0 0 0 0 0 0 0 0 0 0 0 0 0 0 0 0 0 0 0 0 0 0 0 0 0 0 0 0 0 0 0 0 0 0 0 0 0 0 0 0 3 0 3 0 121 0 0 0 0 10 75 0 0 0 0 0 0 0 0 0 0 0 0 0 0 0 0 0 0 0 0 0 0 0 0 0 0 0 0 0 10 0 0 0 0 0 0 0 0 0 0 0 0 0 0 0 0 0 0 0 0 0 0 0 0 0 0 0 0 0 0 0 0 0 0 0 0 0 0 0 0 0 0 0 0 0 0 0 0 0 0 0 0 0 0 0 0 0 0 0 0 0 0 0 0 0 0 0 0 0 0 0 
Printing Sanity2
Heartbeat CPU 0 instructions: 10000000 cycles: 2883884 heartbeat IPC: 3.46755 cumulative IPC: 3.46755 (Simulation time: 0 hr 0 min 22 sec) 
Heartbeat CPU 0 instructions: 20000001 cycles: 5784591 heartbeat IPC: 3.44744 cumulative IPC: 3.45746 (Simulation time: 0 hr 0 min 44 sec) 
Heartbeat CPU 0 instructions: 30000003 cycles: 8642541 heartbeat IPC: 3.49901 cumulative IPC: 3.4712 (Simulation time: 0 hr 1 min 7 sec) 
*** Reached end of trace for Core: 0 Repeating trace: traces/spec2k17/srv_50.champsimtrace.xz
Heartbeat CPU 0 instructions: 40000000 cycles: 11540280 heartbeat IPC: 3.45097 cumulative IPC: 3.46612 (Simulation time: 0 hr 1 min 29 sec) 
Heartbeat CPU 0 instructions: 50000001 cycles: 14445233 heartbeat IPC: 3.4424 cumulative IPC: 3.46135 (Simulation time: 0 hr 1 min 52 sec) 

Warmup complete CPU 0 instructions: 50000001 cycles: 14445233 (Simulation time: 0 hr 1 min 52 sec) 

Heartbeat CPU 0 instructions: 60000002 cycles: 39264924 heartbeat IPC: 0.402906 cumulative IPC: 0.402906 (Simulation time: 0 hr 2 min 26 sec) 
*** Reached end of trace for Core: 0 Repeating trace: traces/spec2k17/srv_50.champsimtrace.xz
Heartbeat CPU 0 instructions: 70000002 cycles: 64815269 heartbeat IPC: 0.391384 cumulative IPC: 0.397061 (Simulation time: 0 hr 3 min 0 sec) 
Heartbeat CPU 0 instructions: 80000000 cycles: 92250826 heartbeat IPC: 0.36449 cumulative IPC: 0.385576 (Simulation time: 0 hr 3 min 35 sec) 
Heartbeat CPU 0 instructions: 90000001 cycles: 117455368 heartbeat IPC: 0.396754 cumulative IPC: 0.388311 (Simulation time: 0 hr 4 min 10 sec) 
*** Reached end of trace for Core: 0 Repeating trace: traces/spec2k17/srv_50.champsimtrace.xz
Heartbeat CPU 0 instructions: 100000002 cycles: 142391168 heartbeat IPC: 0.40103 cumulative IPC: 0.39079 (Simulation time: 0 hr 4 min 44 sec) 
Heartbeat CPU 0 instructions: 110000000 cycles: 169933172 heartbeat IPC: 0.363082 cumulative IPC: 0.385882 (Simulation time: 0 hr 5 min 20 sec) 
Heartbeat CPU 0 instructions: 120000001 cycles: 195018788 heartbeat IPC: 0.398635 cumulative IPC: 0.387654 (Simulation time: 0 hr 5 min 55 sec) 
*** Reached end of trace for Core: 0 Repeating trace: traces/spec2k17/srv_50.champsimtrace.xz
Heartbeat CPU 0 instructions: 130000000 cycles: 219882116 heartbeat IPC: 0.402199 cumulative IPC: 0.389414 (Simulation time: 0 hr 6 min 29 sec) 
Heartbeat CPU 0 instructions: 140000001 cycles: 246270982 heartbeat IPC: 0.378948 cumulative IPC: 0.388223 (Simulation time: 0 hr 7 min 4 sec) 
Heartbeat CPU 0 instructions: 150000003 cycles: 272591354 heartbeat IPC: 0.379934 cumulative IPC: 0.387378 (Simulation time: 0 hr 7 min 39 sec) 
*** Reached end of trace for Core: 0 Repeating trace: traces/spec2k17/srv_50.champsimtrace.xz
Heartbeat CPU 0 instructions: 160000000 cycles: 297406321 heartbeat IPC: 0.402982 cumulative IPC: 0.388746 (Simulation time: 0 hr 8 min 14 sec) 
Heartbeat CPU 0 instructions: 170000002 cycles: 323322739 heartbeat IPC: 0.385856 cumulative IPC: 0.388504 (Simulation time: 0 hr 8 min 49 sec) 
Heartbeat CPU 0 instructions: 180000003 cycles: 350064163 heartbeat IPC: 0.373952 cumulative IPC: 0.387344 (Simulation time: 0 hr 9 min 24 sec) 
*** Reached end of trace for Core: 0 Repeating trace: traces/spec2k17/srv_50.champsimtrace.xz
Heartbeat CPU 0 instructions: 190000001 cycles: 375071485 heartbeat IPC: 0.399883 cumulative IPC: 0.388214 (Simulation time: 0 hr 9 min 58 sec) 
Heartbeat CPU 0 instructions: 200000002 cycles: 401550943 heartbeat IPC: 0.377651 cumulative IPC: 0.387491 (Simulation time: 0 hr 10 min 32 sec) 
Heartbeat CPU 0 instructions: 210000001 cycles: 426717635 heartbeat IPC: 0.397351 cumulative IPC: 0.388093 (Simulation time: 0 hr 11 min 7 sec) 
*** Reached end of trace for Core: 0 Repeating trace: traces/spec2k17/srv_50.champsimtrace.xz
Heartbeat CPU 0 instructions: 220000000 cycles: 451456396 heartbeat IPC: 0.404224 cumulative IPC: 0.389006 (Simulation time: 0 hr 11 min 41 sec) 
Heartbeat CPU 0 instructions: 230000000 cycles: 479131047 heartbeat IPC: 0.361342 cumulative IPC: 0.387358 (Simulation time: 0 hr 12 min 16 sec) 
Heartbeat CPU 0 instructions: 240000000 cycles: 504847615 heartbeat IPC: 0.388854 cumulative IPC: 0.387437 (Simulation time: 0 hr 12 min 51 sec) 
*** Reached end of trace for Core: 0 Repeating trace: traces/spec2k17/srv_50.champsimtrace.xz
Heartbeat CPU 0 instructions: 250000002 cycles: 529061445 heartbeat IPC: 0.412987 cumulative IPC: 0.388639 (Simulation time: 0 hr 13 min 25 sec) 
Finished CPU 0 instructions: 200000001 cycles: 514616212 cumulative IPC: 0.388639 (Simulation time: 0 hr 13 min 25 sec) 

ChampSim completed all CPUs

Region of Interest Statistics

CPU 0 cumulative IPC: 0.388639 instructions: 200000001 cycles: 514616212
ITLB TOTAL     ACCESS:   34014670  HIT:   33055162  MISS:     959508  HIT %:    97.1791  MISS %:    2.82087   MPKI: 4.79754
ITLB LOAD TRANSLATION ACCESS:   34014670  HIT:   33055162  MISS:     959508  HIT %:    97.1791  MISS %:    2.82087   MPKI: 4.79754
ITLB PREFETCH  REQUESTED:          0  ISSUED:          0  USEFUL:          0  USELESS:          0
ITLB USEFUL LOAD PREFETCHES:          0 PREFETCH ISSUED TO LOWER LEVEL:          0  ACCURACY: -nan
ITLB TIMELY PREFETCHES:          0 LATE PREFETCHES: 0 DROPPED PREFETCHES: 0
ITLB PREFETCHES SAME FILL-ORIGIN LEVEL: 0 DIFFERENT FILL-ORIGIN LEVEL: 0
ITLB AVERAGE MISS LATENCY: 10.4542 cycles
ITLB RQ	ACCESS:   39259926	FORWARD:          0	MERGED:    4985670	TO_CACHE:   34274256

DTLB TOTAL     ACCESS:   41644662  HIT:   40639751  MISS:    1004911  HIT %:    97.5869  MISS %:    2.41306   MPKI: 5.02455
DTLB LOAD TRANSLATION ACCESS:   41644662  HIT:   40639751  MISS:    1004911  HIT %:    97.5869  MISS %:    2.41306   MPKI: 5.02455
DTLB PREFETCH  REQUESTED:          0  ISSUED:          0  USEFUL:          0  USELESS:          0
DTLB USEFUL LOAD PREFETCHES:          0 PREFETCH ISSUED TO LOWER LEVEL:          0  ACCURACY: -nan
DTLB TIMELY PREFETCHES:          0 LATE PREFETCHES: 0 DROPPED PREFETCHES: 0
DTLB PREFETCHES SAME FILL-ORIGIN LEVEL: 0 DIFFERENT FILL-ORIGIN LEVEL: 0
DTLB AVERAGE MISS LATENCY: 15.8421 cycles
DTLB RQ	ACCESS:   54474290	FORWARD:          0	MERGED:   12755124	TO_CACHE:   41719166

STLB TOTAL     ACCESS:   27519392  HIT:   27425852  MISS:      93540  HIT %:    99.6601  MISS %:   0.339906   MPKI: 0.4677
STLB LOAD TRANSLATION ACCESS:    1964419  HIT:    1875785  MISS:      88634  HIT %:     95.488  MISS %:    4.51197   MPKI: 0.44317
STLB TRANSLATION FROM L1D PREFETCHER ACCESS:   25554973  HIT:   25550067  MISS:       4906  HIT %:    99.9808  MISS %:  0.0191978   MPKI: 0.02453
STLB PREFETCH  REQUESTED:          0  ISSUED:          0  USEFUL:       4701  USELESS:        205
STLB USEFUL LOAD PREFETCHES:       4701 PREFETCH ISSUED TO LOWER LEVEL:          0  ACCURACY: inf
STLB TIMELY PREFETCHES:       4701 LATE PREFETCHES: 0 DROPPED PREFETCHES: 1102773
STLB PREFETCHES SAME FILL-ORIGIN LEVEL: 0 DIFFERENT FILL-ORIGIN LEVEL: 0
STLB AVERAGE MISS LATENCY: 90.7835 cycles
STLB RQ	ACCESS:   34358894	FORWARD:          0	MERGED:    5710095	TO_CACHE:   28648799

STLB Hit, L1D data hit: 0
STLB Hit, L2C data hit: 0
STLB Hit, LLC data hit: 0
STLB Hit, LLC data miss: 0
STLB STLB hints to L2: 0
L1D TOTAL     ACCESS:   84516457  HIT:   79560187  MISS:    4956270  HIT %:    94.1357  MISS %:    5.86427   MPKI: 24.7813
L1D LOAD      ACCESS:   34629998  HIT:   32610644  MISS:    2019354  HIT %:    94.1688  MISS %:    5.83123   MPKI: 10.0968
L1D RFO       ACCESS:   18790187  HIT:   18041303  MISS:     748884  HIT %:    96.0145  MISS %:    3.98551   MPKI: 3.74442
L1D PREFETCH  ACCESS:   31096272  HIT:   28908240  MISS:    2188032  HIT %:    92.9637  MISS %:    7.03632   MPKI: 10.9402
AGUS PREFETCH L1 MISS: 0
L1D PREFETCH  REQUESTED:   67150489  ISSUED:   67149436  USEFUL:     334025  USELESS:    1854031
L1D USEFUL LOAD PREFETCHES:     334025 PREFETCH ISSUED TO LOWER LEVEL:    2189359  ACCURACY: 15.2567
L1D TIMELY PREFETCHES:     334025 LATE PREFETCHES: 591 DROPPED PREFETCHES: 1183748
L1D PREFETCHES SAME FILL-ORIGIN LEVEL: 2189359 DIFFERENT FILL-ORIGIN LEVEL: 0
L1D AVERAGE MISS LATENCY: 73026.6 cycles
L1D RQ	ACCESS:   46210847	FORWARD:          0	MERGED:   11143143	TO_CACHE:   34756014
L1D WQ	ACCESS:   20039996	FORWARD:     315506	MERGED:     321720	TO_CACHE:   19718276
L1D PQ	ACCESS:   34754961	FORWARD:          0	MERGED:    2356670	TO_CACHE:   32394475

L1D UNIQUE REGIONS ACCESSED: 0
L1D REGIONS CONFLICTS: 0
L1D Cross Page Prefetch Requests: 6976352
L1D Same Page Prefetch Requests: 34446010
L1D ROI Sum of L1D PQ occupancy: 476400642
L1D PREFETCHES PUSHED FROM L2C: 0
L1I TOTAL     ACCESS:   38477601  HIT:   33369783  MISS:    5107818  HIT %:    86.7252  MISS %:    13.2748   MPKI: 25.5391
L1I LOAD      ACCESS:   38477601  HIT:   33369783  MISS:    5107818  HIT %:    86.7252  MISS %:    13.2748   MPKI: 25.5391
L1I PREFETCH  REQUESTED:          0  ISSUED:          0  USEFUL:          0  USELESS:          0
L1I USEFUL LOAD PREFETCHES:          0 PREFETCH ISSUED TO LOWER LEVEL:          0  ACCURACY: -nan
L1I TIMELY PREFETCHES:          0 LATE PREFETCHES: 0 DROPPED PREFETCHES: 0
L1I PREFETCHES SAME FILL-ORIGIN LEVEL: 0 DIFFERENT FILL-ORIGIN LEVEL: 0
L1I AVERAGE MISS LATENCY: 27.5764 cycles
L1I RQ	ACCESS:   58593704	FORWARD:          0	MERGED:   19333778	TO_CACHE:   39259926

BTB TOTAL     ACCESS:   30370699  HIT:   23500647  MISS:    6870052  HIT %:    77.3793  MISS %:    22.6207   MPKI: 34.3503
BTB BRANCH_DIRECT_JUMP	ACCESS:    3828094  HIT:    3320175  MISS:     507919
BTB BRANCH_INDIRECT	ACCESS:   11538876  HIT:    8901929  MISS:    2636947
BTB BRANCH_CONDITIONAL	ACCESS:    8796378  HIT:    8197618  MISS:     598760
BTB BRANCH_DIRECT_CALL	ACCESS:    2543553  HIT:    1630776  MISS:     912777
BTB BRANCH_INDIRECT_CALL	ACCESS:     560087  HIT:     266833  MISS:     293254
BTB BRANCH_RETURN	ACCESS:    3103711  HIT:    1183316  MISS:    1920395
BTB BRANCH_OTHER ACCESS:          0  HIT:          0  MISS:          0

L2C TOTAL     ACCESS:   13067194  HIT:    8517615  MISS:    4549579  HIT %:    65.1832  MISS %:    34.8168   MPKI: 22.7479
L2C LOAD      ACCESS:    7126445  HIT:    4099781  MISS:    3026664  HIT %:    57.5291  MISS %:    42.4709   MPKI: 15.1333
L2C DATA LOAD MPKI: 4.12402
L2C INSTRUCTION LOAD MPKI: 11.0093
L2C RFO       ACCESS:     748068  HIT:     326032  MISS:     422036  HIT %:    43.5832  MISS %:    56.4168   MPKI: 2.11018
L2C PREFETCH  ACCESS:    2189353  HIT:    1233743  MISS:     955610  HIT %:    56.3519  MISS %:    43.6481   MPKI: 4.77805
AGUS PREFETCH L1 MISS: 0
L2C DATA PREFETCH MPKI: 4.77805
L2C INSTRUCTION PREFETCH MPKI: 0
L2C WRITEBACK ACCESS:    1511952  HIT:    1466946  MISS:      45006  HIT %:    97.0233  MISS %:    2.97668   MPKI: 0.22503
L2C LOAD TRANSLATION ACCESS:     140353  HIT:      57601  MISS:      82752  HIT %:    41.0401  MISS %:    58.9599   MPKI: 0.41376
L2C TRANSLATION FROM L1D PREFETCHER ACCESS:    1351023  HIT:    1333512  MISS:      17511  HIT %:    98.7039  MISS %:    1.29613   MPKI: 0.087555
L2C PREFETCH  REQUESTED:          0  ISSUED:          0  USEFUL:      72232  USELESS:     900990
L2C USEFUL LOAD PREFETCHES:      72232 PREFETCH ISSUED TO LOWER LEVEL:     955610  ACCURACY: 7.55873
L2C TIMELY PREFETCHES:      72232 LATE PREFETCHES: 0 DROPPED PREFETCHES: 0
L2C PREFETCHES SAME FILL-ORIGIN LEVEL: 0 DIFFERENT FILL-ORIGIN LEVEL: 0
L2C AVERAGE MISS LATENCY: 55.8599 cycles
L2C RQ	ACCESS:    9366107	FORWARD:          0	MERGED:          0	TO_CACHE:    9365890
L2C WQ	ACCESS:    1511952	FORWARD:        223	MERGED:          0	TO_CACHE:    1511952
L2C PQ	ACCESS:    2189359	FORWARD:          0	MERGED:          0	TO_CACHE:    2189353

L2C Instructions Evicting Data 995934
L2C Translations Evicting Data 55452
L2C Data Evicting Data 1170670
L2C Instructions Evicting Instructions 1163413
L2C Translations Evicting Instructions 42630
L2C Data Evicting Instructions 977273
L2C Instructions Evicting Translations 42513
L2C Translations Evicting Translations 2181
L2C Data Evicting Translations 54507
L2C Dense regions hint from L2: 0
PSCL5 TOTAL     ACCESS:    1196313  HIT:    1196313  MISS:          0  HIT %:        100  MISS %:          0   MPKI: 0
PSCL5 LOAD TRANSLATION ACCESS:      88634  HIT:      88634  MISS:          0  HIT %:        100  MISS %:          0   MPKI: 0
PSCL5 TRANSLATION FROM L1D PREFETCHER ACCESS:    1107679  HIT:    1107679  MISS:          0  HIT %:        100  MISS %:          0   MPKI: 0
PSCL5 PREFETCH  REQUESTED:          0  ISSUED:          0  USEFUL:          0  USELESS:          0
PSCL5 USEFUL LOAD PREFETCHES:          0 PREFETCH ISSUED TO LOWER LEVEL:          0  ACCURACY: -nan
PSCL5 TIMELY PREFETCHES:          0 LATE PREFETCHES: 0 DROPPED PREFETCHES: 0
PSCL5 PREFETCHES SAME FILL-ORIGIN LEVEL: 0 DIFFERENT FILL-ORIGIN LEVEL: 0

PSCL4 TOTAL     ACCESS:    1183049  HIT:    1182212  MISS:        837  HIT %:    99.9293  MISS %:  0.0707494   MPKI: 0.004185
PSCL4 LOAD TRANSLATION ACCESS:      86726  HIT:      85889  MISS:        837  HIT %:    99.0349  MISS %:   0.965109   MPKI: 0.004185
PSCL4 TRANSLATION FROM L1D PREFETCHER ACCESS:    1096323  HIT:    1096323  MISS:          0  HIT %:        100  MISS %:          0   MPKI: 0
PSCL4 PREFETCH  REQUESTED:          0  ISSUED:          0  USEFUL:          0  USELESS:          0
PSCL4 USEFUL LOAD PREFETCHES:          0 PREFETCH ISSUED TO LOWER LEVEL:          0  ACCURACY: -nan
PSCL4 TIMELY PREFETCHES:          0 LATE PREFETCHES: 0 DROPPED PREFETCHES: 0
PSCL4 PREFETCHES SAME FILL-ORIGIN LEVEL: 0 DIFFERENT FILL-ORIGIN LEVEL: 0

PSCL3 TOTAL     ACCESS:    1069031  HIT:    1054693  MISS:      14338  HIT %:    98.6588  MISS %:    1.34121   MPKI: 0.07169
PSCL3 LOAD TRANSLATION ACCESS:      83219  HIT:      68881  MISS:      14338  HIT %:    82.7708  MISS %:    17.2292   MPKI: 0.07169
PSCL3 TRANSLATION FROM L1D PREFETCHER ACCESS:     985812  HIT:     985812  MISS:          0  HIT %:        100  MISS %:          0   MPKI: 0
PSCL3 PREFETCH  REQUESTED:          0  ISSUED:          0  USEFUL:          0  USELESS:          0
PSCL3 USEFUL LOAD PREFETCHES:          0 PREFETCH ISSUED TO LOWER LEVEL:          0  ACCURACY: -nan
PSCL3 TIMELY PREFETCHES:          0 LATE PREFETCHES: 0 DROPPED PREFETCHES: 0
PSCL3 PREFETCHES SAME FILL-ORIGIN LEVEL: 0 DIFFERENT FILL-ORIGIN LEVEL: 0

PSCL2 TOTAL     ACCESS:     977547  HIT:     938994  MISS:      38553  HIT %:    96.0561  MISS %:    3.94385   MPKI: 0.192765
PSCL2 LOAD TRANSLATION ACCESS:      90133  HIT:      51580  MISS:      38553  HIT %:    57.2265  MISS %:    42.7735   MPKI: 0.192765
PSCL2 TRANSLATION FROM L1D PREFETCHER ACCESS:     887414  HIT:     887414  MISS:          0  HIT %:        100  MISS %:          0   MPKI: 0
PSCL2 PREFETCH  REQUESTED:          0  ISSUED:          0  USEFUL:          0  USELESS:          0
PSCL2 USEFUL LOAD PREFETCHES:          0 PREFETCH ISSUED TO LOWER LEVEL:          0  ACCURACY: -nan
PSCL2 TIMELY PREFETCHES:          0 LATE PREFETCHES: 0 DROPPED PREFETCHES: 0
PSCL2 PREFETCHES SAME FILL-ORIGIN LEVEL: 0 DIFFERENT FILL-ORIGIN LEVEL: 0

LLC TOTAL     ACCESS:    5244916  HIT:    4570696  MISS:     674220  HIT %:    87.1453  MISS %:    12.8547   MPKI: 3.3711
LLC LOAD      ACCESS:    3026657  HIT:    2756498  MISS:     270159  HIT %:     91.074  MISS %:    8.92599   MPKI: 1.35079
LLC RFO       ACCESS:     422022  HIT:     221236  MISS:     200786  HIT %:    52.4229  MISS %:    47.5771   MPKI: 1.00393
LLC PREFETCH  ACCESS:     955610  HIT:     777895  MISS:     177715  HIT %:     81.403  MISS %:     18.597   MPKI: 0.888575
AGUS PREFETCH L1 MISS: 0
LLC WRITEBACK ACCESS:     740364  HIT:     736191  MISS:       4173  HIT %:    99.4364  MISS %:   0.563642   MPKI: 0.020865
LLC LOAD TRANSLATION ACCESS:      82752  HIT:      63645  MISS:      19107  HIT %:    76.9105  MISS %:    23.0895   MPKI: 0.095535
LLC TRANSLATION FROM L1D PREFETCHER ACCESS:      17511  HIT:      15231  MISS:       2280  HIT %:    86.9796  MISS %:    13.0204   MPKI: 0.0114
LLC PREFETCH  REQUESTED:          0  ISSUED:          0  USEFUL:      10285  USELESS:     169975
LLC USEFUL LOAD PREFETCHES:      10285 PREFETCH ISSUED TO LOWER LEVEL:     177715  ACCURACY: 5.78736
LLC TIMELY PREFETCHES:      10285 LATE PREFETCHES: 0 DROPPED PREFETCHES: 0
LLC PREFETCHES SAME FILL-ORIGIN LEVEL: 0 DIFFERENT FILL-ORIGIN LEVEL: 0
LLC AVERAGE MISS LATENCY: 176.5 cycles
LLC RQ	ACCESS:    3548964	FORWARD:          0	MERGED:          0	TO_CACHE:    3548943
LLC WQ	ACCESS:     740364	FORWARD:         21	MERGED:          0	TO_CACHE:     740364
LLC PQ	ACCESS:     955610	FORWARD:          0	MERGED:          0	TO_CACHE:     955610

LLC Dense regions hint to LLC: 0

RAW hits: 2064050
Loads Generated: 48274899
Loads sent to L1D: 46210847
Stores Generated: 20039989
Stores sent to L1D: 20039996
Major fault: 0 Minor fault: 6225
Allocated PAGES: 6225
ucb ended
-----------------------------------------------------------------------------------------------------------------------------------------------------------------------------------------------------
Offsets elements: 288221580929815979 33466 1 -10093 10092 2 -2 2200617931262 -3 -1 -14 1349805 -23 -288223781549130472 288223781549131571 -1350881 16 1349767 -1349783 -2200617964355 -357 2200617931243 19 33 -1349818 4 1349804 -301831 301831 215124 -1263101 944605 -944602 1365718 3 -2200619413078 2200606408019 11639343 1322302 -2200619369282 2200606407637 12961646 -1322303 1365713 -1365713 -10 1515195 -1515194 1322316 -4 -1322312 1365717 -1365720 1349781 -1349777 -5 -16 5 -7 7 -2200618078983 2200618078978 11539669 -11539669 11539672 -11539667 11539668 -698 -11538974 -2200617964723 2200629505689 -1293 -11539668 1382163 10157506 1386259 10153410 -11539670 1385238 -1385234 1389055 -39270 26 39244 10150612 18 -10189900 10189184 -2200629503697 -2200629505670 2200629505682 -1439 1393 35 -10191177 10191177 -2200629505677 2448 2200617962258 -2200617962259 2200629503227 -11540967 11540968 2200619314505 -2200619428894 2200619428896 -359160 10550337 -10191174 -359163 359162 -359162 359164 -53 49 -1349761 1349790 -1349823 1349817 1069 -2200619313091 2200617962206 1349796 10550334 -10550337 -2200619312447 2200619312453 10189484 -10189484 -2200619428895 2200619069729 359163 -359165 -990634 990633 -359161 359188 10191111 -10191141 30 -2200619314544 2200619314515 10550113 -11540746 1349797 -9918 10560219 -10560224 10560253 -10560253 10560222 -10560223 9920 -9920 9921 -9922 -970888 970889 -970890 11531113 -10560256 10560223 10560224 -10560222 -980716 980714 10560225 -10560226 10560221 -11540937 11540935 -10560221 -980713 -15 10191141 -2200629620035 2200629620035 -10191142 10191143 10560226 -11540970 -980711 11540934 -980714 11540937 980715 9918 -990633 1349745 -1349742 1349741 52 -1349796 1349744 -359110 359110 -104 104 105 -359111 -10191227 -359112 359111 -359109 -10191226 -1349744 1349792 -10191123 -2200619314513 2200629505669 -40 10191217 -10191218 10191164 -10191164 -13 -39 10189481 -10189494 -1349738 1349775 61 -52 -1349784 1349754 -2200619271672 2200619271656 36 39281 -39318 10191176 -34 -10151876 10151912 -10151911 -39320 39322 10150613 -10150612 10150611 -10150611 -10150613 -3821 10154434 -10150616 10150616 -10150615 10150614 -39304 -301779 301779 -318495 444451 -22751 22755 -2200619436414 2200619413662 22756 -13028415 13005660 -2200619413277 2200619369318 66712 126120 -126120 -22760 22759 -8 -39309 39327 -2200619353784 2200619320316 -39342 39339 -39341 37 10189191 -10149894 39342 -288223781549164595 849720274 -849720272 849791944 -1465996233040 1465140594202 855638838 -1465996230850 23759025 -23758161 -2900 1465996224600 -849783609 -49 288223781559314809 -10189511 -2200619431411 2200619431411 23 444463 -22763 22763 -22764 22762 -13028425 13005661 22767 -2200619436044 2200619436041 12961698 66727 -66725 9 66711 -66710 -11 199269 -132547 -66712 -13028427 13160969 -132546 132544 -132544 132545 -65559 65559 -12 132551 -132551 132547 -199266 199265 -132548 -66713 -6 -13028422 13028423 22765 -39338 39347 -50 -1465146441095 1465146441099 849791941 -849791944 -1465146441435 455 10515 1465146430517 849783350 -849783399 -5846879 21 91 -1465140594333 1465996233040 -1465996232929 1465996161239 71690 -71345 66384 -849786982 -1465146441097 1465146441096 -855638707 854640391 -1465995357548 122337 1465146441585 848743566 -854590431 -1465140572256 -21987 -211 10726 11425 -21837 29529 -11781 -17911 21962 -22144 29874 1465996194850 -849783350 -1465146441174 1465995234759 -1465995212827 -22199 1465995235027 -1465995224099 1465995224123 -1465995212850 1465995212849 -1465995225069 1465995225067 -848793676 -1465146441597 3560 1465146438035 -1465146437268 -4167 3412 -3074 -1465996233269 348 1465996161231 71698 4961 -1465996232914 1465140594199 -1465116790137 -23804062 23804062 1465122636910 -1465146441242 621 1465140593846 -1465140593847 17388 -17748 1465146441029 -1465996224730 22151 -21963 1465995212815 43 -1465995212821 1465146419143 -1465146412209 1465146412211 -5846793 -1465140594381 1465140594277 -1465140592012 864 1465146438044 -5846792 5846792 -5846791 5846793 3624 5843170 -5846795 -98 -1465140594208 1465140594208 855638832 -1465996233115 288223781559314760 421700 13028428 -22767 13028427 132542 -132549 -199269 199267 -199267 66719 132552 -171881 171880 -132550 132550 -199286 19160 203740 -156173 -1395542 -25 15 1395556 -1395566 10 -2200617958215 2200629503697 2200629504003 -3072 1652 -11544386 11544401 -2200629502605 2200619351318 10148836 -2200629502598 2200617958209 11544389 -11544400 -2200618072598 2200618072612 1542821 -1542824 11544395 -10001574 10001574 -11544399 1542822 -1542818 1542820 -1542821 -1542820 1542823 -1542796 11544335 -11544402 1542793 -147261 -2200619353779 2200619501041 10001353 -2200629500342 2200617956168 1329541 10214823 -10148839 -66017 -10214821 10214822 10214853 -10001575 -213280 213282 -1609298 -2200617889692 2200629500532 -10214825 -10214822 10214821 -10148803 11544400 -2200618072583 115161 -115164 2200629616988 -2200629501825 2200629502902 -2200629502902 29647 -144879 114457 885 -885 -114457 2200619353759 -2200629501821 2200629501823 -10148836 -1395564 11544402 -2200629616999 2200629616997 -10148837 10148835 -35 -11544341 1395543 156170 -156169 -47570 47572 -66735 66736 -66732 66732 -198101 198100 -3744609272 3739760165 -3739760165 3754628791 -10152075 -2200619485966 2200614636866 14868620 -3754628597 3754628597 3739759977 -3739759977 3744476524 66716 -13028424 -288223781549164645 50 -1465146441094 1465146441098 -849791943 -1465146441434 1465996213867 -5846857 5846858 -1465146441098 1465146441101 849791939 -849791941 -5846794 -1465140594307 1465146441102 849791938 -849791938 -5846824 3626 -1465140601213 1465140597558 3655 -3655 -51 40 -89 78 5846898 -1465146441118 13 -855638717 -1465140583527 1465140583430 -1465140594316 1465140594416 -1465140572372 1465140572372 -1465140583825 1465140583825 5846740 -1465146411453 -29496 17748 1465146423281 -855630277 -1465140594218 345 -4962 -849787013 -1465146441064 1465146441066 849791974 -849791975 -5846779 -1465140576423 -849783430 -1465140594429 1465140594404 -1465140583478 -10644 1465994138814 -853544692 855630493 -855630494 5846883 -78 -5846804 -1465140594129 1465140594129 -1465140594246 40045 1465140554223 92 -55 -1465140594421 1465140594421 -1465140582395 1465140582395 -1465140597561 -11012 14297 -1465996233414 374 -849791982 -1465146430260 -10798 -849791976 -1465146545829 1465146545829 -1465146441105 -293 1465996233333 -855638761 41 14 -17 -92 -1465140594172 1465140594368 -1465140583628 1465140583628 -134 -56 157 5846675 -5846796 10304 -1465140604571 -855638776 -1465140594265 -1465996229717 1465146437738 -1465146437735 1465146437735 849791979 -849791979 -1465146441061 1465140594264 855638776 164 -164 -1465140590942 -3175 1465146440911 -5845749 5845746 -5846633 5846631 1465146441062 849791978 -5845745 -5845748 -993 -43 -1465140597560 1465140597560 990 -1465140595390 2265 865 -3055 -855637734 -1465140595306 2626 -1465140597932 1465140595317 -1465140595610 5843126 -5840783 5840791 -5843126 -5845738 4958 5840794 -1465146441058 1465146441058 849791982 -849791984 -1465146441060 1465146441061 -849791981 -5845754 8 -1465140595289 1465140594251 -65 65 -64 5937 -1465140600149 11882 1465140583424 855637734 -855638800 1066 -203 165 -1465140594550 1465140594553 5846669 -1465146545708 1465146545708 -1045 -1465140594122 2085801 -5845830 -1096 -1465140594262 -2094085 -1465994138816 1465140594123 855630492 -855630493 -90 -5845739 -1053 -1465140594130 1465140594130 1054 -1465140577451 -989740 -1465995234629 1465140600063 854634566 -848793702 -1465146441053 1465146441054 849791985 -1087 1098 -1465140595346 10661 -923 1465140590481 -1465116796001 -23794473 -57516 23851989 1465116796001 -1465140647993 23851992 5840866 -1465146488856 1465146488856 1465146488866 -5845759 -996 5863 -29 121 -1465140600440 1465140600384 -1465140603188 1465140603505 -1465140611958 1465140611961 -322 5840848 -5840906 -5931 6275 -341 5840868 -1088 1088 -1465140595238 -68 -1465996222444 -10596 -849792019 -5845714 -1465140595564 1465140594594 -1465140594328 45 1465140594166 -1465140583425 -10791 -147 -14152 10797 1465996222243 -849792005 -1465146441035 1465146441042 11 849791986 -849791997 -1465146441228 1465140594411 -1465140594483 1465146441313 -1465146430262 1465140584520 4875 -1465140600189 1465140594218 855638822 -855632888 58 -58 -5789 118 5851 -1465140600537 1465140600499 5840852 -5846759 -1465140583452 1465140583443 5916 -849792042 -5846774 119 5846649 -5846769 -1465140594224 1465146440998 849792042 -849792044 -5846651 -1465140594344 -855638822 -1465140594193 1465140600124 -1465140582336 1465140588267 -1465140600124 11857 1465140582352 -1465140594235 -849792045 -5846777 -1465140588267 -11857 1465140594193 5931 -11882 1465140594234 855638806 -5846770 -1465140594323 -1465146427159 -13838 10798 1465996222242 -1465146440998 1465146440996 -5846663 -1465140594309 1465996233015 -855632891 -5870 -1465140582397 1465140594253 -1465140597558 1465146444281 -1465146429119 1465140582336 346 -1465140600504 -855632533 -6221 -54 -20 5846784 -1465146440996 849792045 -855632536 5840493 -5840505 5840505 -5840848 -5862 31 988 1465140594279 855638761 853544695 -1465994138820 1465140594124 855630491 -855630491 5846881 -149 -5846718 -1465140594132 1465140594131 5846733 849792044 -1465140704878 1465140704910 -1465140603251 2978 287 6220 -1465140600492 -855638764 -1465140594339 1465140594386 -1465140593810 17351 1465995234777 -1465995212815 1465995212858 1465146419035 -1465146412490 1465146412492 -5840716 -1465140600711 1465140594713 6226 -1465140598380 -2122 1465146440992 849792049 -849792048 -5840489 -6279 1465140600149 855632891 -855638706 -1465140594434 10904 -10670 1465146441010 -1465146395658 1465994090278 -1465994135947 -298 1465140600977 -6219 6221 -6226 6216 5840496 -1465146430185 34682 -1465994135651 45373 1465146395658 -45485 849792048 -849792053 6 -5840496 5840502 -5840810 32 5840778 -5840751 5840752 -1465140594215 1465140594225 -855638825 -1465140594647 -63 -1465140594164 1465140600095 -1465140599650 1465140593824 -1465140593824 17365 1465995234965 -1465995212814 1465995212857 -1465995234820 21999 -38 1465146419071 5846780 -1465146412340 1465146412340 -5840843 -1465996233332 1465140600798 -6277 1465146440977 849792063 1465146440970 849792070 -849792070 -5846635 -118 5840827 -1465146440954 -315 1465140600799 5840484 -1465146440980 1465146440973 849792067 -849792067 -1465146440974 1465146440988 849792052 -849792065 -5846775 357 5840501 -1465146441454 1465140600956 5934 343 -1465140600497 1465140600492 5840500 -1465996233344 304 1465140594268 855638772 -1465996230886 -2154 1465146440968 849792072 -855638704 6170 -6172 6173 -6294 6293 5840486 -5846675 -1465140594368 -91479 1465146532498 -5846624 5846648 -1465146440992 1465996232921 -71690 -849787116 849792076 -849792076 -1465146440964 -5846758 5846758 5846745 -5846743 -1465146441431 606 1465996205201 -43987 43906 -43937 -849720161 849720292 -69 -855567199 855567137 -5846976 5846767 -5845751 5845750 -1465146440910 12 -1465146441016 1465146441016 5846765 -1465146444288 3073 -111 22262 1465146419057 -5846756 -1465140572276 -10315 1465146429337 -5846748 -1465140552317 1465140553313 5845751 -1465146440962 1465146440964 849792079 1465146440969 849792075 -855638696 5846626 -5846738 -1465146441023 1465146441043 -4961 -66737 -66383 -849720731 -855632534 -6291 6292 -6292 994 -1465140595062 -1465996163460 1465140558617 855560856 -31 131 -1465996161920 1465996205726 -43875 -62 5846976 -210 -334 1465140594499 -1465140594450 1465140594452 -24 5846768 -1465146441307 1465140594540 -1465140572278 1465140578591 -1465140578572 1465140573358 -1465140598610 3311 -1465996221414 1465140588881 -1465140588881 -11946 11948 23748500 -23855988 23855986 -286 286 1465118972464 -1465118972750 1465118972750 30086 3678285 -1465146437638 1465142759354 -1465142762525 1465142732438 -1465142729263 1465140597180 2162170 -2162170 5840450 -1465122681121 1465122681121 -1465146440960 1465146440961 849792080 -849792080 -3678273 -2168469 -1465116834377 1465122681123 -1465146429336 1465146429336 -5840457 5846748 -5845662 5845662 -1465146440963 -849792075 -1465146440965 -5846625 855638696 5840462 -1465146441007 -1465140588835 1465140588835 -1465140597184 1465140597179 849792071 -849792072 -5840464 -1465140600555 1465140594385 -1465140594295 -187 10934 -10647 1465996224615 -849783610 -173 -1465146427418 1465146427419 -1465146440932 13553 1465996219487 -2095847 -1465994123640 30448 -30448 -10231 1465140598894 2163649 -2162188 2162194 -2162194 5840459 -3678264 5840460 -1465146440966 -1465146396966 1465146396965 -1465996219485 1465140585491 5841925 -1465140580659 1465140586725 -1465140600146 13420 39 2162378 -1465142763036 100 -757 22924 -4068 1465139585694 -1465139563894 1465996202579 -176 -5846729 9448416 -3601685 854640518 -854640469 -5846883 5846709 -5840661 199 -6295 132 211 -1465140600353 1465140600135 3152 -3149 -1465140600158 1465140600158 2162418 -2162422 -1465140601305 1465140601273 -1465140600164 1465140600164 5840686 -1465146440848 1465146440849 -1465146440968 1465140600280 855632760 1465146440966 849792073 -855638827 5846756 -1465146440970 1465146440971 17 -849792071 -5840475 -6282 6290 5840487 -5840842 5840845 -1465146444114 1465140603626 -214 5840710 -218 2162423 -2162186 2162183 -2162183 2162186 3678288 -5840492 -5840714 -1465140601302 1465140601302 -1465140600278 -1465996218769 -14271 -849792054 -1465146415772 1465140569075 64 8019 853136562 -853136562 5838743 5846772 -1465146440990 1465140600497 -354 855632545 -855632762 -6059 2168469 -1465142763071 1465140600182 855632858 -855632548 5840495 5846777 -5840498 -1465140600953 1465140594674 -5840839 5840842 -5846676 -133 5846688 187 -6290 -1465140568999 1465140569073 6205 -849792052 -1465146440988 1465146440994 849792046 -849792047 5840498 -1465146441343 349 -1465996233207 11811 -11644 -849792046 -5840499 -1465140588866 1465140582589 -1465140594348 -77 1465140600390 -5958 5837 -6024 -1465140594444 226 1465140600152 855632888 -855632830 -5930 409 1465140593821 -1465140593821 17362 1465995212814 -1465995234777 1465995234820 -1465995212858 1465146419007 -1465146412350 1465146412350 -5840458 2162419 -1465142762863 -281 281 -278 60 -2162419 -1465140600277 -853470344 -2162201 -216 -1465140600279 1465146440956 -5840643 855632726 -855632543 -5840743 5840742 -5846742 5997 -5996 319 -1465140611957 11430 -855632513 -375 -1465140611564 1465140611621 -1465140600513 -1465140592114 1465996230886 1465146440951 849792089 -855632509 -1465140612728 11823 1465140600908 -1465140600526 -225 1465996233265 -855632831 318 -1465140599746 1465140593437 6308 -339 20 -5990 1465140600526 855632514 -1465996232894 1465140600113 267 5840412 -5840446 -219 249 2162172 -1465142762727 1465140600307 -1465140589646 1465140589696 -1465140590619 1465140590551 -1465140590544 1465140590544 70 -70 2162413 -1465142810475 1465140648081 5840657 -3678263 1465140648132 5840607 -5840437 5846663 -5840443 -1465142762695 1465140600312 855632728 -855638823 6278 46 5840604 -1465146440935 1465146440948 849792092 -849792103 -5846515 -1465140594803 -6138 -1465140593607 1465140599715 -288 5949 -1465140600134 748 1465140599548 -48 47 -19 -1465140613336 1465140613288 48 51 2162367 -1465142763006 -12693 1465140613332 -1465140613331 1465140613331 -1465140613333 12693 4143 1465140596496 -1465140613338 1465140613535 -198 5840671 -5840421 -2168479 57 5840741 -1465146440950 -849792091 -5840420 5840422 -5840429 -1465140612720 1465140612715 -1465140612724 1465140612728 -32 -33 -184 221 1465140612724 -1465140612723 1465140612723 5840458 -5840642 -1465140612712 1465140612714 -1465140612714 1465140612718 -267 -1465140612641 1465140612909 -5840690 266 -266 -1465140612636 1465140612628 -268 1465140612638 -1465140612635 -1465140612624 1465140612626 -1465140612626 1465146453313 265 5840689 -5840687 1465140612889 -1465140611939 1465140611942 -1465140612732 1465140612533 202 -1465140613534 1465140613538 -199 -1465140613339 1465140613541 -1465140612735 1465140612735 264 -1465140612908 1465140612908 -1465140611942 1465140611939 11073 -5840618 -6312 6312 -348 341 1465140612720 -1465140612727 1465140612727 -1465140613334 1465146453956 -1465140612633 1465140612633 5840684 -1465146453327 1465146453328 -1465140613541 1465140613273 -1465140612644 1465146453330 -1465146440951 1465140600532 855632508 -855632510 203 -1465140613542 -269 1465140612901 1465140612466 257 -1465140612900 173 1465140612731 1465140613270 -1465140612643 1465146453327 -1465140612731 1465140612532 1465140613539 1465146453326 -1465146441288 -855623967 5840617 -5846930 5964 1465140612696 5840641 -5840419 -6313 268 -1465140612892 1465140612624 -5840423 -1465140611955 1465140611955 11033 853 1465140600056 -1465140600690 -12041 5840418 5840421 1465146440952 -5840427 -262 5840688 849792090 -5846531 5846538 849792087 -5822 5826 313 -1465140611909 1465140611919 5840463 -5840749 5840744 -5840745 -6061 -1465140600708 1465140594714 5993 -47 94 -1465140614818 1465140615076 -1465140612719 12084 1465140588815 -1465140600517 781 -1006 -855632522 -6299 5991 -1465140600188 1465140600517 -1465140600371 1465996232894 -855632795 272 -240 -1465140600306 2162420 -1465142752066 1465140589613 83 1465140590537 -1465140590912 1465146431227 -5840613 -6052 2168396 1465146488749 -5840449 2162169 -2162177 -1465140648298 1465140648080 -1465140600312 -855632545 133 -6411 -1465140594217 1465146440944 -5840671 344 855632412 -1465996233007 1465140594388 1465140600899 6064 -1465140599845 1465140593607 6240 -132 -41 -1465140600478 1465140600642 28 -1465140613284 1465140613629 2162069 -2162067 -1465140600939 -12692 16836 1465140596794 -1465140613631 1465140613526 109 -109 -241 2168479 3678260 -1465146440957 1465146440958 -5840791 5840804 849792084 297 -1465140606408 -121 5840702 5846539 -1465146441126 212 -517 12174 -11586 1465140594272 5823 -1465140589580 1465140589627 855624240 -855623984 5840634 -1465146453338 1465140606401 174 -1465140594525 1465140594800 5854 -1465140612705 1465140606400 5846746 -1465146441209 1465140600768 5840441 -1465146441265 1465146441266 -5840441 -6200 -1465140606515 1465140607503 -1465140595530 1465140594435 6047 -5940 67 5846574 -5846300 -342 5940 -1465140588556 1465146429257 -5840742 -5999 6056 -93 -1465140600648 1465140600660 -46 -1465140614772 14560 -1465140582516 1465140588553 -1465140600558 1465996233344 -5884 -12151 9597 1465996233422 -1465996233265 1465140600434 -6038 -1465140593437 1465140599407 68 1465140600520 -1465140600372 1465140600375 855632517 -1465996245245 1465140612414 247 -1465140600525 1465140600306 -30 244 -1465140589890 1465142752066 -2162420 1465140590919 1465142752957 1465146488738 -5840607 5840656 -1465146440934 -5846662 1465140594217 6411 5840309 -5840660 5840636 -855638619 1465140600904 2162174 -2162414 -6063 170 123 -344 1092 1465140599846 -345 -1465140600620 -12696 -1465140613281 1465140613632 -1465140613629 1465142775698 -1465142758863 1465140596690 -1465140613526 1465140607222 -1465140590386 5840322 -5840782 -1465140613155 1465140613285 246 5840695 -5840694 -1465140600257 1465140600209 2162488 -2162179 855632522 -1465996245230 1465140612710 -265 261 -261 29 5840429 -1465146453150 1465140612695 -1465140612694 1465140612510 263 -1465140612440 1465140612440 -1465140602631 1465140602633 -1465140602643 1465140602629 1465140602631 -1465140610233 1465140610233 -1465140610232 1465140610232 1465140610234 262 -1465140612726 1465140612830 -1465140613637 1465140613637 -370 -1465140613267 1465140613267 -1465140602645 1465140602645 -1465140602644 1465140602644 1465140602648 -1465140602648 -7583 1465146450927 1465140612831 -1465140596794 1465140596424 269 -1465140600248 -2396 -1465140610252 1465140610253 5840430 1465140613529 -1465140612460 -1465140613259 1465146453959 -1465146443345 5840700 -1465146443343 1465140596814 -5846570 5846563 849792088 -855632782 -1465140610237 1465140610249 -1465140610246 -6039 6040 5970 -5767 -1465140582719 1465146429258 -5846571 6104 218 -179 176 -215 -1465140575063 1465142737483 -2162485 -1465140588510 1465140588515 -1465140600217 1465140600214 855632826 -855632833 -1465140600214 1465146440960 -849792082 -1465146440958 -5892 6209 -5221 -1465140606728 1465140611635 5840749 -5840688 -9 -1465140588792 1465140588582 5840685 -1465146440969 -855632763 -2168487 -1465140594211 -849792081 -5846575 275 -275 5846572 1465146440959 849792082 -849792079 -5846295 -1465140594547 1465146440841 -5840684 2162421 5840690 -5840640 300 -350 302 -352 305 -5967 5846295 -1465146440961 1465146440962 -5616 5616 -5665 5548 -1465146441133 167 1465140594344 -855632826 -1465140600381 1465140600662 298 -136 5840464 849792081 -5840681 5840653 -5846303 5615 -6096 -5939 5835 -855638814 -1465140600498 320 -1465140588428 1465140588427 -1465140598233 1465142760611 -1465142763045 11140 -10940 1465140594816 5611 -2162381 -1465140601297 1061 10396 -10347 1465996161233 -849720292 849720223 5846760 849720377 8052 -1465140602320 866 -3291 235 21916 1465996211124 -1465996211086 1465146419000 1465146440955 849792085 -849792086 -1465146411086 1465140564797 5846292 2162387 981 14271 1465996218769 -1465996207826 -25214 1465140594289 855638751 -855638751 -8019 853144581 5838711 -1465146440987 1465993738832 -1465993738719 16544 -16243 2880 1465993735913 2494247 1465993736602 398465 -1465994137257 3047 1465993735746 1465993738867 -1465993736602 1465146438764 -1465146437908 1465146437909 847297846 -853144466 -1465140594251 -1465140583906 1465993722555 -1465993738797 1465140600325 853138467 -1465993738837 16276 1465993722550 -1465993722085 1465993722091 -1465993738725 3181 -2880 1465993738793 1465994137332 -398465 -2190 -847297838 1465993738868 -1465993736603 856 -847297837 -1465146441457 985 1465140593837 -1465140593837 17378 1465146419001 -1465146412172 1465146412172 -5838711 -1937 -855632724 -6085 -1008428 -1465139567946 -1465996224542 -855648920 -1465139585817 3081 -3069 -5840637 -1465140578397 -22184 -712 977 25214 1465996207826 -5846660 5838707 847297856 -1465993738839 1465140594258 -1465140577982 -1465993738868 1465996233115 -2095783 -1465994135067 -1465993738792 -1465993735746 1465996229993 -847297840 -1465146438762 1465140598136 -1465140600359 1465993738826 -1465993735747 1465140597608 853138145 -1465993722556 -16169 -74 -1465993739094 2955 1465996230160 2190 1465993736603 -847297842 3122 -853138466 -1465140597270 -1465140601631 1465139726520 -1465139725576 1465140584073 -5992 6320 853138480 -854013243 874766 -5983 -1465140569103 1465140569220 -1465140594713 1465140594609 -1465140569117 -1465140717556 122954 11022 -10824 21953 -21944 1465993738799 2494241 -855638815 853144573 -853138472 331 853138143 -853144582 853144575 -853138644 177 853138478 -853138147 -1465993722550 1465993722556 -2494248 847297845 1465993735745 2494248 -849792088 1465146438763 849792086 -1465996229994 -6855003 6855002 848793768 -50060 -848743710 -5840639 -1465140601293 1465140601255 38 -5993 -1465140594334 -855630794 1937 -1465140602119 1465140602120 5838713 -5838712 5838709 -5846622 -100 -1465140691146 96910 -849787124 -1465146440955 -849792085 -5846630 -1465140594325 849792083 -849792084 -1465140600247 98 -1465996232983 13781 1465140586657 -183 -1465140600309 -849792083 -5840468 5840467 -5840752 -1465140600213 -849792074 -5840439 1465140605757 5846622 -167 1465996233207 11428 -1465140611943 1465140611943 1465140612900 1465140612730 -264 1465140612635 -1465140612638 -1465140612889 1465140612467 66 -1465140612901 1465140612905 -1465140613538 806 1465146453967 -1465146429254 1465146429248 -1465146440834 -588 11103 -5846739 5846565 -1465146441090 -153 3659 7311 -10515 1465146441032 -849783549 -1465140594522 285 3858 -4361 362 -126 588 -1465146441315 1465140594378 -5857 -1465140606874 -1465140600439 -12897 1465146453958 -1465146441422 1465146440833 849783549 -5846937 -1465140594827 1465146441123 -1465146440952 -849792089 -5846282 -1465140605463 1465140605467 5849 197 -1465140613536 12539 -855630287 -5846566 5846567 -1465146440924 1465146440924 -5846286 -1465140605475 1465140605482 -217 -5640 -5824 5640 214 -1465140606857 -1465140582971 1465146429250 -5846734 -5546 -452 452 5846285 -5840803 -1465140600152 -849792087 -5846292 -1465140605482 1465140605479 -1465140606868 -5858 5857 -1465140612693 1465140612509 -1465140606870 -1465140612682 1465140606857 5855 216 -5852 5846283 -1465146453145 -1465140588823 1465146429256 -1465146441430 1465140594550 -1465140584035 -21444 1465996235295 5846298 -1465146441125 -305 -1465140594552 1465146441125 -5840682 855632766 5846618 5845 -1465140588811 -11702 -1465140605142 1465140605464 855638374 -1465996243853 1465140605157 322 -1465140605464 1465140605466 -324 -1465140605479 1465140594666 1465146451769 -5846290 5846290 -1465146451753 1465140605463 -1465140605478 1465146451765 -1465140605476 1465146451766 -1465146440956 1465146440957 -5846616 5846617 -5846540 5846540 -5846572 -1465140594388 849792078 -5846301 5846286 -1465146441128 1465140594833 -1465140594666 -10802 1465996243849 -855638371 -1465140595059 363 1465140594696 -1465140595146 -5846574 -1465146441099 1465996224382 -189 -5840434 -6314 6052 5840698 -1465146441272 4125 -3908 1465140594754 -5849 -1465140606883 -66 -1465140613277 633 12378 1465140594680 855638361 -855632517 -5650 5584 1465140613534 -1465140612905 1465140612639 -1465140612466 -631 1465140607687 -1465140612470 12669 -5846469 -461 -5504 -5630 1465140612637 1465140607040 1465140607053 -1465140606103 1465140606103 -1465140595054 1465140595058 5846278 -1465146452369 11249 637 1465140594203 5846280 -1465146440959 1465140600523 -5590 5846288 -12204 5840632 -1465146429258 1465146429259 -1465996246048 1465140607683 -1465140606102 1465140606090 -5845 -1465140606877 1465140606877 -5631 -5815 5631 5846 -5847 -1465140606867 1465140612712 1465140612451 -5584 -1465140607051 5846284 -5840697 -1465140612676 1465140606784 1465140575102 23753207 1465116848095 -1465140601290 974 1465140600316 855632724 5846598 6101 1918 -1465140602277 1465140600687 5840234 847297919 1465140584083 -6101 6429 -854013251 868669 -868675 874606 -1465140600318 1465140600491 -1465140584074 1465140584078 328 -1465140600654 -73 -1465146441360 1465996233510 -1465996216795 1465140584035 5840696 -5846632 5846621 -5840649 5840650 -849792064 -5846551 -1465116848057 1465116848098 -1465140601307 998 1465140600319 -338 -874768 -1465140600473 -834 15262 -137494 1465146564034 5840497 -1465122681001 1465122681001 -5840503 -1465140704980 1465140699015 5935 -1465140600774 584 -393 1465146440820 -5840543 855632763 -849792221 -5846595 6105 -1465140600566 1465140594303 -1465140583751 -10404 1465140594154 115 5933 3678127 -1465146440697 -849720223 -5847012 855567379 -855567379 855567173 -855567233 13985 -13985 13990 -13959 5846635 -5846627 13992 -13992 14067 -14017 855567377 -849720729 -5846649 14019 -14019 5846654 -1465146440886 
Potential of Offsets elements: 28.5675 28.5675 774.567 28.5675 28.5675 739.567 1197.57 28.5675 250.567 1841.57 309.567 28.5675 336.567 28.5675 28.5675 28.5675 207.567 28.5675 28.5675 28.5675 28.5675 28.5675 60.5675 90.5675 28.5675 1514.57 28.5675 28.5675 28.5675 30.5675 28.5675 42.5675 28.5675 33.5675 534.567 28.5675 28.5675 28.5675 28.5675 28.5675 28.5675 28.5675 28.5675 28.5675 28.5675 95.5675 28.5675 28.5675 28.5675 935.567 28.5675 28.5675 28.5675 28.5675 28.5675 1142.57 597.131 1186.57 918.567 912.567 28.5675 28.5675 28.5675 28.5675 28.5675 28.5675 28.5675 28.5675 28.5675 28.5675 28.5675 28.5675 28.5675 28.5675 28.5675 28.5675 28.5675 28.5675 28.5675 28.5675 28.5675 28.5675 138.567 28.5675 28.5675 38.5675 28.5675 28.5675 28.5675 28.5675 28.5675 28.5675 28.5675 194.567 28.5675 28.5675 28.5675 28.5675 28.5675 28.5675 28.5675 28.5675 28.5675 28.5675 28.5675 28.5675 28.5675 28.5675 28.5675 28.5675 28.5675 28.5675 28.5675 28.5675 28.5675 28.5675 28.5675 28.5675 28.5675 28.5675 28.5675 28.5675 28.5675 28.5675 28.5675 28.5675 28.5675 28.5675 28.5675 28.5675 28.5675 28.5675 28.5675 28.5675 28.5675 28.5675 28.5675 28.5675 28.5675 384.567 28.5675 28.5675 28.5675 28.5675 28.5675 28.5675 28.5675 28.5675 28.5675 28.5675 28.5675 28.5675 28.5675 28.5675 28.5675 28.5675 28.5675 28.5675 28.5675 28.5675 28.5675 28.5675 28.5675 28.5675 28.5675 28.5675 28.5675 28.5675 28.5675 28.5675 28.5675 28.5675 28.5675 58.5675 28.5675 28.5675 28.5675 28.5675 28.5675 28.5675 28.5675 28.5675 28.5675 28.5675 28.5675 28.5675 28.5675 28.5675 28.5675 28.5675 28.5675 28.5675 28.5675 28.5675 28.5675 28.5675 53.5675 38.5675 28.5675 28.5675 28.5675 28.5675 28.5675 28.5675 28.5675 28.5675 28.5675 28.5675 28.5675 28.5675 28.5675 28.5675 28.5675 28.5675 28.5675 28.5675 28.5675 28.5675 28.5675 28.5675 28.5675 49.5675 107.567 28.5675 28.5675 28.5675 28.5675 135.567 28.5675 28.5675 28.5675 1197.57 28.5675 28.5675 28.5675 28.5675 28.5675 28.5675 28.5675 28.5675 110.567 28.5675 28.5675 28.5675 28.5675 28.5675 28.5675 28.5675 28.5675 28.5675 28.5675 28.5675 28.5675 28.5675 28.5675 28.5675 28.5675 28.5675 28.5675 28.5675 28.5675 28.5675 28.5675 28.5675 28.5675 28.5675 28.5675 324.567 28.5675 28.5675 28.5675 62.5675 32.5675 31.5675 28.5675 38.5675 28.5675 28.5675 28.5675 28.5675 28.5675 28.5675 28.5675 653.567 28.5675 28.5675 88.5675 28.5675 28.5675 28.5675 28.5675 28.5675 86.5675 28.5675 28.5675 28.5675 28.5675 91.5675 28.5675 28.5675 28.5675 28.5675 28.5675 28.5675 28.5675 28.5675 28.5675 28.5675 28.5675 28.5675 28.5675 278.567 28.5675 28.5675 246.567 28.5675 28.5675 31.5675 28.5675 28.5675 28.5675 28.5675 28.5675 28.5675 28.5675 28.5675 398.567 28.5675 28.5675 28.5675 28.5675 28.5675 28.5675 28.5675 171.567 28.5675 28.5675 28.5675 28.5675 28.5675 30.5675 66.5675 28.5675 28.5675 28.5675 29.5675 28.5675 28.5675 28.5675 31.5675 28.5675 28.5675 94.5675 32.5675 28.5675 58.5675 68.5675 28.5675 28.5675 28.5675 28.5675 28.5675 28.5675 28.5675 28.5675 28.5675 28.5675 28.5675 28.5675 28.5675 28.5675 28.5675 28.5675 29.5675 28.5675 28.5675 28.5675 28.5675 28.5675 28.5675 28.5675 28.5675 28.5675 28.5675 28.5675 28.5675 28.5675 28.5675 28.5675 28.5675 28.5675 28.5675 29.5675 28.5675 28.5675 28.5675 28.5675 28.5675 28.5675 28.5675 28.5675 28.5675 28.5675 28.5675 28.5675 34.5675 28.5675 28.5675 28.5675 97.5675 28.5675 28.5675 28.5675 28.5675 28.5675 28.5675 28.5675 28.5675 28.5675 28.5675 28.5675 28.5675 28.5675 28.5675 28.5675 28.5675 28.5675 28.5675 28.5675 28.5675 28.5675 28.5675 28.5675 28.5675 28.5675 28.5675 28.5675 28.5675 28.5675 28.5675 28.5675 28.5675 28.5675 28.5675 38.5675 28.5675 28.5675 28.5675 28.5675 28.5675 28.5675 28.5675 28.5675 28.5675 28.5675 28.5675 28.5675 28.5675 28.5675 28.5675 28.5675 28.5675 28.5675 28.5675 28.5675 28.5675 28.5675 28.5675 28.5675 28.5675 150.567 112.567 28.5675 28.5675 972.567 28.5675 28.5675 28.5675 28.5675 28.5675 28.5675 28.5675 28.5675 28.5675 28.5675 28.5675 28.5675 28.5675 28.5675 28.5675 28.5675 28.5675 28.5675 28.5675 28.5675 28.5675 28.5675 28.5675 28.5675 28.5675 28.5675 28.5675 28.5675 28.5675 28.5675 28.5675 28.5675 28.5675 28.5675 28.5675 28.5675 28.5675 28.5675 28.5675 28.5675 28.5675 28.5675 28.5675 28.5675 28.5675 28.5675 28.5675 28.5675 28.5675 28.5675 28.5675 28.5675 28.5675 28.5675 28.5675 28.5675 28.5675 28.5675 28.5675 28.5675 28.5675 28.5675 28.5675 28.5675 28.5675 28.5675 28.5675 28.5675 28.5675 28.5675 28.5675 28.5675 28.5675 28.5675 28.5675 28.5675 28.5675 28.5675 28.5675 1142.57 28.5675 28.5675 28.5675 38.5675 32.5675 28.5675 34.5675 28.5675 28.5675 28.5675 28.5675 28.5675 28.5675 28.5675 28.5675 28.5675 28.5675 28.5675 28.5675 28.5675 28.5675 28.5675 28.5675 28.5675 28.5675 28.5675 28.5675 28.5675 1206.57 28.5675 28.5675 28.5675 28.5675 28.5675 28.5675 28.5675 28.5675 28.5675 28.5675 28.5675 28.5675 28.5675 28.5675 28.5675 28.5675 28.5675 28.5675 28.5675 28.5675 28.5675 28.5675 1478.57 1121.57 593.567 568.567 28.5675 28.5675 108.567 28.5675 28.5675 28.5675 28.5675 28.5675 28.5675 28.5675 28.5675 28.5675 28.5675 28.5675 28.5675 28.5675 28.5675 28.5675 28.5675 28.5675 28.5675 28.5675 28.5675 28.5675 28.5675 28.5675 28.5675 28.5675 28.5675 30.5675 48.5675 28.5675 28.5675 28.5675 28.5675 28.5675 28.5675 28.5675 28.5675 28.5675 28.5675 28.5675 28.5675 28.5675 28.5675 712.567 581.567 28.5675 28.5675 28.5675 28.5675 28.5675 28.5675 28.5675 28.5675 28.5675 28.5675 28.5675 28.5675 28.5675 28.5675 28.5675 28.5675 28.5675 28.5675 28.5675 1039.57 998.567 1751.57 826.567 28.5675 28.5675 28.5675 28.5675 28.5675 553.567 30.5675 28.5675 28.5675 28.5675 28.5675 28.5675 28.5675 28.5675 28.5675 28.5675 28.5675 28.5675 28.5675 28.5675 28.5675 28.5675 32.5675 43.5675 28.5675 28.5675 28.5675 28.5675 28.5675 50.5675 48.5675 28.5675 28.5675 28.5675 28.5675 28.5675 77.5675 28.5675 28.5675 28.5675 28.5675 29.5675 28.5675 28.5675 28.5675 28.5675 28.5675 28.5675 28.5675 28.5675 28.5675 28.5675 28.5675 28.5675 28.5675 28.5675 28.5675 28.5675 28.5675 28.5675 28.5675 28.5675 28.5675 28.5675 28.5675 1677.57 28.5675 28.5675 75.5675 89.5675 30.5675 28.5675 28.5675 250.567 28.5675 28.5675 28.5675 28.5675 86.5675 63.5675 31.5675 28.5675 36.5675 28.5675 28.5675 28.5675 28.5675 28.5675 28.5675 28.5675 28.5675 28.5675 28.5675 28.5675 28.5675 28.5675 39.5675 28.5675 28.5675 29.5675 28.5675 28.5675 28.5675 28.5675 29.5675 28.5675 28.5675 44.5675 28.5675 28.5675 28.5675 28.5675 28.5675 28.5675 31.5675 28.5675 28.5675 28.5675 28.5675 28.5675 28.5675 28.5675 28.5675 28.5675 28.5675 28.5675 28.5675 28.5675 28.5675 28.5675 28.5675 96.5675 44.5675 28.5675 28.5675 28.5675 28.5675 28.5675 28.5675 28.5675 28.5675 28.5675 28.5675 28.5675 28.5675 28.5675 28.5675 28.5675 28.5675 756.567 28.5675 28.5675 28.5675 28.5675 28.5675 28.5675 28.5675 275.567 28.5675 28.5675 29.5675 29.5675 28.5675 28.5675 62.5675 28.5675 35.5675 28.5675 146.567 28.5675 28.5675 28.5675 28.5675 28.5675 30.5675 28.5675 28.5675 28.5675 28.5675 28.5675 28.5675 28.5675 43.5675 31.5675 28.5675 60.5675 28.5675 28.5675 28.5675 28.5675 58.5675 28.5675 28.5675 28.5675 28.5675 102.567 29.5675 28.5675 28.5675 28.5675 28.5675 28.5675 28.5675 28.5675 28.5675 28.5675 28.5675 28.5675 28.5675 28.5675 28.5675 28.5675 28.5675 28.5675 28.5675 28.5675 28.5675 28.5675 28.5675 28.5675 28.5675 28.5675 28.5675 28.5675 28.5675 28.5675 28.5675 28.5675 28.5675 28.5675 28.5675 28.5675 28.5675 28.5675 28.5675 28.5675 28.5675 28.5675 28.5675 28.5675 28.5675 28.5675 28.5675 28.5675 28.5675 28.5675 733.567 756.567 28.5675 28.5675 28.5675 28.5675 28.5675 28.5675 28.5675 28.5675 28.5675 384.567 28.5675 28.5675 28.5675 28.5675 28.5675 28.5675 28.5675 28.5675 28.5675 28.5675 28.5675 28.5675 28.5675 28.5675 28.5675 28.5675 28.5675 28.5675 104.567 32.5675 28.5675 28.5675 28.5675 28.5675 28.5675 28.5675 28.5675 32.5675 28.5675 28.5675 28.5675 28.5675 28.5675 28.5675 28.5675 28.5675 28.5675 28.5675 28.5675 44.5675 28.5675 28.5675 28.5675 28.5675 28.5675 28.5675 28.5675 28.5675 28.5675 31.5675 28.5675 28.5675 28.5675 28.5675 29.5675 28.5675 28.5675 28.5675 28.5675 28.5675 28.5675 28.5675 28.5675 28.5675 28.5675 28.5675 28.5675 28.5675 28.5675 488.567 28.5675 28.5675 28.5675 287.567 28.5675 28.5675 28.5675 28.5675 28.5675 28.5675 28.5675 121.567 28.5675 28.5675 28.5675 28.5675 28.5675 28.5675 28.5675 28.5675 28.5675 28.5675 28.5675 89.5675 28.5675 171.567 29.5675 31.5675 28.5675 28.5675 28.5675 28.5675 49.5675 28.5675 51.5675 28.5675 28.5675 28.5675 99.5675 28.5675 28.5675 28.5675 28.5675 28.5675 28.5675 28.5675 28.5675 28.5675 28.5675 28.5675 28.5675 28.5675 28.5675 28.5675 28.5675 28.5675 28.5675 28.5675 28.5675 28.5675 28.5675 28.5675 28.5675 28.5675 28.5675 28.5675 28.5675 28.5675 28.5675 28.5675 28.5675 28.5675 28.5675 28.5675 28.5675 28.5675 28.5675 28.5675 28.5675 28.5675 28.5675 28.5675 28.5675 28.5675 28.5675 28.5675 28.5675 28.5675 28.5675 28.5675 28.5675 28.5675 28.5675 28.5675 28.5675 28.5675 28.5675 28.5675 28.5675 28.5675 28.5675 28.5675 28.5675 28.5675 28.5675 28.5675 28.5675 28.5675 28.5675 28.5675 1263.57 28.5675 28.5675 28.5675 28.5675 28.5675 40.5675 28.5675 28.5675 28.5675 31.5675 28.5675 28.5675 28.5675 28.5675 28.5675 28.5675 28.5675 28.5675 28.5675 28.5675 28.5675 28.5675 28.5675 28.5675 28.5675 28.5675 28.5675 28.5675 28.5675 28.5675 28.5675 28.5675 28.5675 28.5675 28.5675 28.5675 28.5675 28.5675 28.5675 267.567 28.5675 28.5675 28.5675 28.5675 572.567 28.5675 28.5675 28.5675 28.5675 28.5675 28.5675 40.5675 28.5675 28.5675 28.5675 28.5675 28.5675 28.5675 28.5675 28.5675 28.5675 28.5675 28.5675 28.5675 28.5675 28.5675 28.5675 28.5675 28.5675 28.5675 28.5675 28.5675 28.5675 28.5675 28.5675 28.5675 28.5675 28.5675 28.5675 28.5675 28.5675 28.5675 28.5675 28.5675 28.5675 28.5675 28.5675 28.5675 28.5675 28.5675 28.5675 28.5675 28.5675 28.5675 28.5675 28.5675 28.5675 28.5675 28.5675 28.5675 28.5675 28.5675 28.5675 28.5675 28.5675 28.5675 28.5675 33.5675 28.5675 28.5675 28.5675 28.5675 28.5675 28.5675 28.5675 28.5675 28.5675 29.5675 34.5675 28.5675 28.5675 28.5675 28.5675 28.5675 28.5675 28.5675 28.5675 28.5675 28.5675 28.5675 28.5675 28.5675 28.5675 28.5675 28.5675 28.5675 28.5675 28.5675 28.5675 28.5675 28.5675 28.5675 30.5675 28.5675 28.5675 28.5675 28.5675 28.5675 28.5675 28.5675 28.5675 28.5675 74.5675 28.5675 28.5675 34.5675 28.5675 28.5675 28.5675 28.5675 28.5675 28.5675 48.5675 28.5675 28.5675 28.5675 28.5675 28.5675 28.5675 28.5675 28.5675 37.5675 28.5675 109.567 28.5675 28.5675 28.5675 28.5675 28.5675 28.5675 28.5675 28.5675 28.5675 28.5675 28.5675 28.5675 28.5675 28.5675 28.5675 28.5675 28.5675 28.5675 28.5675 28.5675 28.5675 28.5675 28.5675 28.5675 28.5675 1783.57 28.5675 28.5675 28.5675 28.5675 28.5675 28.5675 28.5675 28.5675 28.5675 28.5675 28.5675 28.5675 28.5675 28.5675 28.5675 28.5675 28.5675 28.5675 28.5675 28.5675 28.5675 28.5675 28.5675 28.5675 28.5675 28.5675 28.5675 28.5675 71.5675 28.5675 28.5675 28.5675 28.5675 28.5675 28.5675 28.5675 56.5675 28.5675 28.5675 28.5675 28.5675 28.5675 28.5675 28.5675 28.5675 28.5675 28.5675 28.5675 28.5675 28.5675 28.5675 28.5675 28.5675 28.5675 28.5675 37.5675 58.5675 28.5675 28.5675 28.5675 28.5675 33.5675 33.5675 28.5675 28.5675 28.5675 28.5675 29.5675 28.5675 28.5675 28.5675 28.5675 28.5675 28.5675 28.5675 28.5675 157.567 28.5675 28.5675 28.5675 28.5675 34.5675 68.5675 28.5675 28.5675 28.5675 28.5675 28.5675 28.5675 28.5675 28.5675 28.5675 28.5675 28.5675 28.5675 28.5675 28.5675 28.5675 28.5675 28.5675 28.5675 32.5675 31.5675 28.5675 96.5675 28.5675 28.5675 28.5675 28.5675 28.5675 28.5675 28.5675 28.5675 28.5675 28.5675 28.5675 28.5675 28.5675 28.5675 28.5675 28.5675 28.5675 28.5675 28.5675 29.5675 28.5675 28.5675 28.5675 28.5675 28.5675 40.5675 28.5675 28.5675 28.5675 28.5675 28.5675 28.5675 29.5675 28.5675 28.5675 28.5675 28.5675 28.5675 28.5675 28.5675 1036.57 28.5675 28.5675 28.5675 28.5675 28.5675 28.5675 28.5675 28.5675 28.5675 28.5675 28.5675 28.5675 28.5675 28.5675 28.5675 28.5675 28.5675 28.5675 28.5675 865.567 818.567 28.5675 28.5675 28.5675 28.5675 28.5675 28.5675 28.5675 28.5675 28.5675 28.5675 28.5675 28.5675 28.5675 28.5675 28.5675 41.5675 28.5675 196.567 34.5675 28.5675 28.5675 28.5675 28.5675 28.5675 28.5675 28.5675 36.5675 28.5675 28.5675 28.5675 28.5675 133.567 91.5675 113.567 28.5675 28.5675 108.567 39.5675 28.5675 28.5675 32.5675 28.5675 28.5675 28.5675 28.5675 28.5675 28.5675 28.5675 28.5675 28.5675 38.5675 28.5675 28.5675 28.5675 182.567 28.5675 28.5675 28.5675 28.5675 28.5675 28.5675 28.5675 28.5675 28.5675 28.5675 208.567 795.567 32.5675 28.5675 28.5675 28.5675 28.5675 28.5675 28.5675 28.5675 28.5675 28.5675 28.5675 28.5675 28.5675 28.5675 28.5675 68.5675 28.5675 28.5675 28.5675 28.5675 28.5675 28.5675 28.5675 28.5675 28.5675 28.5675 28.5675 28.5675 28.5675 28.5675 28.5675 28.5675 28.5675 28.5675 28.5675 28.5675 28.5675 34.5675 28.5675 28.5675 28.5675 28.5675 85.5675 28.5675 28.5675 28.5675 28.5675 34.5675 28.5675 28.5675 28.5675 31.5675 36.5675 28.5675 28.5675 28.5675 28.5675 28.5675 28.5675 28.5675 28.5675 28.5675 28.5675 28.5675 28.5675 28.5675 28.5675 28.5675 28.5675 28.5675 28.5675 28.5675 28.5675 28.5675 28.5675 28.5675 28.5675 28.5675 28.5675 28.5675 28.5675 28.5675 28.5675 28.5675 28.5675 28.5675 28.5675 28.5675 28.5675 28.5675 28.5675 28.5675 28.5675 28.5675 28.5675 28.5675 28.5675 28.5675 28.5675 28.5675 28.5675 28.5675 28.5675 28.5675 28.5675 28.5675 29.5675 28.5675 28.5675 28.5675 28.5675 28.5675 28.5675 28.5675 28.5675 28.5675 28.5675 28.5675 28.5675 29.5675 28.5675 28.5675 28.5675 28.5675 28.5675 28.5675 28.5675 28.5675 29.5675 28.5675 107.567 28.5675 28.5675 28.5675 28.5675 28.5675 28.5675 28.5675 28.5675 28.5675 28.5675 28.5675 28.5675 28.5675 28.5675 28.5675 28.5675 28.5675 28.5675 164.567 28.5675 28.5675 28.5675 28.5675 70.5675 28.5675 28.5675 28.5675 28.5675 28.5675 28.5675 28.5675 28.5675 28.5675 28.5675 28.5675 28.5675 28.5675 28.5675 28.5675 28.5675 28.5675 28.5675 28.5675 28.5675 28.5675 28.5675 28.5675 28.5675 28.5675 28.5675 28.5675 28.5675 28.5675 28.5675 28.5675 28.5675 367.567 28.5675 28.5675 28.5675 28.5675 28.5675 28.5675 28.5675 28.5675 28.5675 28.5675 88.5675 100.567 28.5675 28.5675 28.5675 28.5675 28.5675 28.5675 28.5675 28.5675 28.5675 28.5675 28.5675 28.5675 28.5675 28.5675 28.5675 28.5675 28.5675 28.5675 28.5675 28.5675 28.5675 28.5675 28.5675 28.5675 28.5675 28.5675 28.5675 28.5675 28.5675 28.5675 28.5675 28.5675 28.5675 28.5675 28.5675 28.5675 28.5675 28.5675 28.5675 28.5675 28.5675 28.5675 28.5675 28.5675 28.5675 28.5675 28.5675 28.5675 28.5675 28.5675 28.5675 28.5675 28.5675 28.5675 28.5675 28.5675 28.5675 28.5675 28.5675 28.5675 28.5675 28.5675 28.5675 28.5675 28.5675 28.5675 28.5675 28.5675 28.5675 28.5675 28.5675 28.5675 28.5675 28.5675 28.5675 28.5675 900.567 28.5675 28.5675 28.5675 28.5675 28.5675 28.5675 28.5675 28.5675 28.5675 811.567 28.5675 28.5675 28.5675 28.5675 28.5675 28.5675 28.5675 28.5675 28.5675 28.5675 28.5675 28.5675 28.5675 28.5675 28.5675 28.5675 39.5675 28.5675 28.5675 28.5675 28.5675 82.5675 69.5675 62.5675 28.5675 28.5675 28.5675 28.5675 28.5675 28.5675 28.5675 28.5675 28.5675 28.5675 28.5675 28.5675 28.5675 28.5675 28.5675 28.5675 28.5675 28.5675 28.5675 28.5675 28.5675 28.5675 28.5675 28.5675 28.5675 28.5675 28.5675 28.5675 28.5675 29.5675 32.5675 45.5675 28.5675 28.5675 28.5675 28.5675 28.5675 38.5675 28.5675 28.5675 28.5675 28.5675 28.5675 28.5675 28.5675 28.5675 28.5675 28.5675 28.5675 28.5675 28.5675 28.5675 28.5675 28.5675 28.5675 32.5675 28.5675 28.5675 28.5675 28.5675 28.5675 28.5675 28.5675 28.5675 28.5675 28.5675 28.5675 28.5675 28.5675 28.5675 28.5675 28.5675 28.5675 28.5675 28.5675 28.5675 28.5675 28.5675 28.5675 28.5675 28.5675 28.5675 28.5675 28.5675 28.5675 28.5675 28.5675 28.5675 28.5675 28.5675 28.5675 28.5675 28.5675 28.5675 28.5675 28.5675 28.5675 28.5675 28.5675 28.5675 50.5675 31.5675 28.5675 28.5675 28.5675 28.5675 28.5675 28.5675 28.5675 28.5675 28.5675 28.5675 28.5675 28.5675 28.5675 28.5675 28.5675 28.5675 28.5675 28.5675 28.5675 28.5675 1848.1 28.5675 28.5675 28.5675 28.5675 28.5675 28.5675 28.5675 28.5675 28.5675 28.5675 28.5675 28.5675 28.5675 28.5675 28.5675 28.5675 28.5675 28.5675 28.5675 28.5675 28.5675 28.5675 28.5675 28.5675 28.5675 28.5675 28.5675 28.5675 28.5675 28.5675 28.5675 28.5675 28.5675 28.5675 28.5675 28.5675 28.5675 28.5675 28.5675 28.5675 28.5675 28.5675 28.5675 28.5675 28.5675 28.5675 28.5675 28.5675 28.5675 28.5675 28.5675 28.5675 28.5675 28.5675 28.5675 28.5675 28.5675 28.5675 28.5675 28.5675 28.5675 28.5675 28.5675 28.5675 28.5675 28.5675 28.5675 28.5675 28.5675 28.5675 28.5675 28.5675 28.5675 28.5675 28.5675 28.5675 28.5675 28.5675 28.5675 28.5675 28.5675 28.5675 28.5675 28.5675 28.5675 28.5675 28.5675 28.5675 28.5675 28.5675 28.5675 28.5675 28.5675 28.5675 28.5675 28.5675 28.5675 28.5675 28.5675 28.5675 28.5675 28.5675 33.5675 28.5675 46.5675 28.5675 28.5675 28.5675 28.5675 28.5675 28.5675 28.5675 136.567 28.5675 28.5675 28.5675 28.5675 28.5675 28.5675 28.5675 28.5675 28.5675 34.5675 32.5675 28.5675 28.5675 28.5675 28.5675 37.5675 33.5675 31.5675 28.5675 28.5675 44.5675 808.567 58.5675 28.5675 28.5675 100.567 28.5675 28.5675 28.5675 40.5675 46.5675 28.5675 28.5675 28.5675 28.5675 28.5675 28.5675 28.5675 28.5675 28.5675 28.5675 28.5675 28.5675 28.5675 28.5675 28.5675 28.5675 28.5675 28.5675 28.5675 28.5675 28.5675 29.5675 28.5675 28.5675 91.5675 28.5675 28.5675 28.5675 28.5675 38.5675 28.5675 28.5675 28.5675 289.567 28.5675 28.5675 28.5675 28.5675 40.5675 28.5675 28.5675 28.5675 28.5675 28.5675 28.5675 28.5675 28.5675 28.5675 28.5675 108.567 28.5675 28.5675 358.567 28.5675 28.5675 28.5675 28.5675 28.5675 28.5675 28.5675 28.5675 28.5675 28.5675 28.5675 28.5675 28.5675 28.5675 28.5675 28.5675 28.5675 28.5675 28.5675 28.5675 28.5675 28.5675 28.5675 28.5675 28.5675 28.5675 28.5675 28.5675 28.5675 28.5675 28.5675 28.5675 28.5675 28.5675 28.5675 28.5675 28.5675 28.5675 28.5675 28.5675 28.5675 28.5675 28.5675 28.5675 28.5675 28.5675 28.5675 28.5675 28.5675 28.5675 28.5675 28.5675 28.5675 28.5675 28.5675 28.5675 28.5675 28.5675 28.5675 28.5675 28.5675 28.5675 28.5675 28.5675 28.5675 28.5675 28.5675 28.5675 28.5675 208.567 28.5675 28.5675 28.5675 28.5675 28.5675 28.5675 28.5675 28.5675 28.5675 28.5675 127.567 28.5675 28.5675 28.5675 28.5675 28.5675 28.5675 28.5675 28.5675 28.5675 28.5675 28.5675 28.5675 28.5675 28.5675 28.5675 28.5675 28.5675 28.5675 28.5675 28.5675 28.5675 28.5675 28.5675 28.5675 28.5675 28.5675 28.5675 28.5675 28.5675 28.5675 28.5675 28.5675 28.5675 28.5675 28.5675 28.5675 28.5675 28.5675 28.5675 28.5675 28.5675 28.5675 28.5675 28.5675 28.5675 28.5675 28.5675 28.5675 28.5675 28.5675 29.5675 189.567 28.5675 33.5675 34.5675 28.5675 181.567 28.5675 29.5675 36.5675 28.5675 45.5675 30.5675 28.5675 28.5675 30.5675 28.5675 28.5675 28.5675 28.5675 28.5675 28.5675 28.5675 28.5675 28.5675 28.5675 77.5675 28.5675 36.5675 28.5675 28.5675 28.5675 32.5675 28.5675 28.5675 28.5675 28.5675 36.5675 28.5675 28.5675 28.5675 28.5675 28.5675 28.5675 28.5675 28.5675 28.5675 28.5675 28.5675 28.5675 28.5675 28.5675 28.5675 28.5675 28.5675 28.5675 28.5675 28.5675 28.5675 28.5675 28.5675 28.5675 28.5675 28.5675 28.5675 28.5675 28.5675 28.5675 28.5675 28.5675 28.5675 28.5675 28.5675 28.5675 28.5675 28.5675 28.5675 28.5675 28.5675 32.5675 28.5675 28.5675 30.5675 28.5675 28.5675 28.5675 28.5675 28.5675 28.5675 28.5675 28.5675 40.5675 28.5675 28.5675 28.5675 28.5675 28.5675 28.5675 28.5675 28.5675 28.5675 28.5675 28.5675 223.567 28.5675 28.5675 28.5675 61.5675 28.5675 28.5675 44.5675 28.5675 28.5675 28.5675 28.5675 28.5675 28.5675 28.5675 88.5675 28.5675 28.5675 30.5675 28.5675 28.5675 28.5675 28.5675 28.5675 28.5675 28.5675 28.5675 28.5675 28.5675 28.5675 28.5675 28.5675 28.5675 28.5675 28.5675 869.567 28.5675 28.5675 28.5675 28.5675 28.5675 28.5675 28.5675 28.5675 28.5675 28.5675 28.5675 28.5675 28.5675 28.5675 28.5675 28.5675 28.5675 28.5675 28.5675 28.5675 28.5675 28.5675 28.5675 28.5675 28.5675 28.5675 28.5675 28.5675 28.5675 28.5675 28.5675 28.5675 28.5675 28.5675 28.5675 28.5675 28.5675 28.5675 28.5675 28.5675 28.5675 28.5675 28.5675 28.5675 28.5675 28.5675 28.5675 28.5675 28.5675 31.5675 28.5675 31.5675 28.5675 149.567 28.5675 28.5675 28.5675 28.5675 38.5675 103.567 28.5675 28.5675 28.5675 28.5675 28.5675 28.5675 28.5675 28.5675 28.5675 28.5675 28.5675 28.5675 28.5675 28.5675 28.5675 28.5675 28.5675 28.5675 28.5675 28.5675 28.5675 28.5675 28.5675 28.5675 28.5675 28.5675 28.5675 28.5675 28.5675 38.5675 28.5675 28.5675 28.5675 28.5675 28.5675 28.5675 28.5675 28.5675 28.5675 28.5675 28.5675 28.5675 28.5675 28.5675 28.5675 28.5675 28.5675 28.5675 28.5675 28.5675 28.5675 28.5675 28.5675 28.5675 28.5675 28.5675 28.5675 28.5675 28.5675 28.5675 28.5675 28.5675 28.5675 28.5675 28.5675 28.5675 28.5675 28.5675 28.5675 28.5675 28.5675 28.5675 28.5675 28.5675 28.5675 28.5675 28.5675 28.5675 28.5675 28.5675 28.5675 28.5675 28.5675 28.5675 28.5675 28.5675 28.5675 28.5675 28.5675 28.5675 28.5675 28.5675 28.5675 28.5675 28.5675 28.5675 28.5675 28.5675 28.5675 28.5675 28.5675 
rewards of Offsets elements: 0 0 746 0 0 711 1169 0 222 1813 281 0 308 0 0 0 179 0 0 0 0 0 32 62 0 1486 0 0 0 2 0 14 0 5 506 0 0 0 0 0 0 0 0 0 0 67 0 0 0 907 0 0 0 0 0 1114 592 1158 890 884 0 0 0 0 0 0 0 0 0 0 0 0 0 0 0 0 0 0 0 0 0 0 110 0 0 10 0 0 0 0 0 0 0 166 0 0 0 0 0 0 0 0 0 0 0 0 0 0 0 0 0 0 0 0 0 0 0 0 0 0 0 0 0 0 0 0 0 0 0 0 0 0 0 0 0 0 0 0 0 356 0 0 0 0 0 0 0 0 0 0 0 0 0 0 0 0 0 0 0 0 0 0 0 0 0 0 0 0 0 0 0 0 0 30 0 0 0 0 0 0 0 0 0 0 0 0 0 0 0 0 0 0 0 0 0 0 25 10 0 0 0 0 0 0 0 0 0 0 0 0 0 0 0 0 0 0 0 0 0 0 0 21 79 0 0 0 0 107 0 0 0 1169 0 0 0 0 0 0 0 0 82 0 0 0 0 0 0 0 0 0 0 0 0 0 0 0 0 0 0 0 0 0 0 0 0 0 0 296 0 0 0 34 4 3 0 10 0 0 0 0 0 0 0 625 0 0 60 0 0 0 0 0 58 0 0 0 0 63 0 0 0 0 0 0 0 0 0 0 0 0 0 250 0 0 218 0 0 3 0 0 0 0 0 0 0 0 370 0 0 0 0 0 0 0 143 0 0 0 0 0 2 38 0 0 0 1 0 0 0 3 0 0 66 4 0 30 40 0 0 0 0 0 0 0 0 0 0 0 0 0 0 0 0 1 0 0 0 0 0 0 0 0 0 0 0 0 0 0 0 0 0 0 1 0 0 0 0 0 0 0 0 0 0 0 0 6 0 0 0 69 0 0 0 0 0 0 0 0 0 0 0 0 0 0 0 0 0 0 0 0 0 0 0 0 0 0 0 0 0 0 0 0 0 0 10 0 0 0 0 0 0 0 0 0 0 0 0 0 0 0 0 0 0 0 0 0 0 0 0 0 122 84 0 0 944 0 0 0 0 0 0 0 0 0 0 0 0 0 0 0 0 0 0 0 0 0 0 0 0 0 0 0 0 0 0 0 0 0 0 0 0 0 0 0 0 0 0 0 0 0 0 0 0 0 0 0 0 0 0 0 0 0 0 0 0 0 0 0 0 0 0 0 0 0 0 0 0 0 0 0 0 0 0 0 1114 0 0 0 10 4 0 6 0 0 0 0 0 0 0 0 0 0 0 0 0 0 0 0 0 0 0 0 0 1178 0 0 0 0 0 0 0 0 0 0 0 0 0 0 0 0 0 0 0 0 0 0 1450 1093 565 540 0 0 80 0 0 0 0 0 0 0 0 0 0 0 0 0 0 0 0 0 0 0 0 0 0 0 0 0 0 2 20 0 0 0 0 0 0 0 0 0 0 0 0 0 0 684 553 0 0 0 0 0 0 0 0 0 0 0 0 0 0 0 0 0 0 0 1011 970 1723 798 0 0 0 0 0 525 2 0 0 0 0 0 0 0 0 0 0 0 0 0 0 0 4 15 0 0 0 0 0 22 20 0 0 0 0 0 49 0 0 0 0 1 0 0 0 0 0 0 0 0 0 0 0 0 0 0 0 0 0 0 0 0 0 0 0 1649 0 0 47 61 2 0 0 222 0 0 0 0 58 35 3 0 8 0 0 0 0 0 0 0 0 0 0 0 0 0 11 0 0 1 0 0 0 0 1 0 0 16 0 0 0 0 0 0 3 0 0 0 0 0 0 0 0 0 0 0 0 0 0 0 0 68 16 0 0 0 0 0 0 0 0 0 0 0 0 0 0 0 0 728 0 0 0 0 0 0 0 247 0 0 1 1 0 0 34 0 7 0 118 0 0 0 0 0 2 0 0 0 0 0 0 0 15 3 0 32 0 0 0 0 30 0 0 0 0 74 1 0 0 0 0 0 0 0 0 0 0 0 0 0 0 0 0 0 0 0 0 0 0 0 0 0 0 0 0 0 0 0 0 0 0 0 0 0 0 0 0 0 0 0 0 0 0 0 0 0 705 728 0 0 0 0 0 0 0 0 0 356 0 0 0 0 0 0 0 0 0 0 0 0 0 0 0 0 0 0 76 4 0 0 0 0 0 0 0 4 0 0 0 0 0 0 0 0 0 0 0 16 0 0 0 0 0 0 0 0 0 3 0 0 0 0 1 0 0 0 0 0 0 0 0 0 0 0 0 0 0 460 0 0 0 259 0 0 0 0 0 0 0 93 0 0 0 0 0 0 0 0 0 0 0 61 0 143 1 3 0 0 0 0 21 0 23 0 0 0 71 0 0 0 0 0 0 0 0 0 0 0 0 0 0 0 0 0 0 0 0 0 0 0 0 0 0 0 0 0 0 0 0 0 0 0 0 0 0 0 0 0 0 0 0 0 0 0 0 0 0 0 0 0 0 0 0 0 0 0 0 0 0 0 0 0 0 0 0 0 0 0 1235 0 0 0 0 0 12 0 0 0 3 0 0 0 0 0 0 0 0 0 0 0 0 0 0 0 0 0 0 0 0 0 0 0 0 0 0 0 0 0 239 0 0 0 0 544 0 0 0 0 0 0 12 0 0 0 0 0 0 0 0 0 0 0 0 0 0 0 0 0 0 0 0 0 0 0 0 0 0 0 0 0 0 0 0 0 0 0 0 0 0 0 0 0 0 0 0 0 0 0 0 0 0 0 0 0 0 0 5 0 0 0 0 0 0 0 0 0 1 6 0 0 0 0 0 0 0 0 0 0 0 0 0 0 0 0 0 0 0 0 0 0 0 2 0 0 0 0 0 0 0 0 0 46 0 0 6 0 0 0 0 0 0 20 0 0 0 0 0 0 0 0 9 0 81 0 0 0 0 0 0 0 0 0 0 0 0 0 0 0 0 0 0 0 0 0 0 0 0 0 1755 0 0 0 0 0 0 0 0 0 0 0 0 0 0 0 0 0 0 0 0 0 0 0 0 0 0 0 0 43 0 0 0 0 0 0 0 28 0 0 0 0 0 0 0 0 0 0 0 0 0 0 0 0 0 0 9 30 0 0 0 0 5 5 0 0 0 0 1 0 0 0 0 0 0 0 0 129 0 0 0 0 6 40 0 0 0 0 0 0 0 0 0 0 0 0 0 0 0 0 0 0 4 3 0 68 0 0 0 0 0 0 0 0 0 0 0 0 0 0 0 0 0 0 0 1 0 0 0 0 0 12 0 0 0 0 0 0 1 0 0 0 0 0 0 0 1008 0 0 0 0 0 0 0 0 0 0 0 0 0 0 0 0 0 0 0 837 790 0 0 0 0 0 0 0 0 0 0 0 0 0 0 0 13 0 168 6 0 0 0 0 0 0 0 8 0 0 0 0 105 63 85 0 0 80 11 0 0 4 0 0 0 0 0 0 0 0 0 10 0 0 0 154 0 0 0 0 0 0 0 0 0 0 180 767 4 0 0 0 0 0 0 0 0 0 0 0 0 0 0 40 0 0 0 0 0 0 0 0 0 0 0 0 0 0 0 0 0 0 0 0 0 6 0 0 0 0 57 0 0 0 0 6 0 0 0 3 8 0 0 0 0 0 0 0 0 0 0 0 0 0 0 0 0 0 0 0 0 0 0 0 0 0 0 0 0 0 0 0 0 0 0 0 0 0 0 0 0 0 0 0 0 0 0 0 0 0 0 0 0 0 1 0 0 0 0 0 0 0 0 0 0 0 0 1 0 0 0 0 0 0 0 0 1 0 79 0 0 0 0 0 0 0 0 0 0 0 0 0 0 0 0 0 0 136 0 0 0 0 42 0 0 0 0 0 0 0 0 0 0 0 0 0 0 0 0 0 0 0 0 0 0 0 0 0 0 0 0 0 0 0 0 339 0 0 0 0 0 0 0 0 0 0 60 72 0 0 0 0 0 0 0 0 0 0 0 0 0 0 0 0 0 0 0 0 0 0 0 0 0 0 0 0 0 0 0 0 0 0 0 0 0 0 0 0 0 0 0 0 0 0 0 0 0 0 0 0 0 0 0 0 0 0 0 0 0 0 0 0 0 0 0 0 0 0 0 0 0 0 0 0 872 0 0 0 0 0 0 0 0 0 783 0 0 0 0 0 0 0 0 0 0 0 0 0 0 0 0 11 0 0 0 0 54 41 34 0 0 0 0 0 0 0 0 0 0 0 0 0 0 0 0 0 0 0 0 0 0 0 0 0 0 0 0 0 1 4 17 0 0 0 0 0 10 0 0 0 0 0 0 0 0 0 0 0 0 0 0 0 0 0 4 0 0 0 0 0 0 0 0 0 0 0 0 0 0 0 0 0 0 0 0 0 0 0 0 0 0 0 0 0 0 0 0 0 0 0 0 0 0 0 0 0 0 0 0 22 3 0 0 0 0 0 0 0 0 0 0 0 0 0 0 0 0 0 0 0 0 1848 0 0 0 0 0 0 0 0 0 0 0 0 0 0 0 0 0 0 0 0 0 0 0 0 0 0 0 0 0 0 0 0 0 0 0 0 0 0 0 0 0 0 0 0 0 0 0 0 0 0 0 0 0 0 0 0 0 0 0 0 0 0 0 0 0 0 0 0 0 0 0 0 0 0 0 0 0 0 0 0 0 0 0 0 0 0 0 0 0 0 0 0 0 0 0 0 0 0 0 0 0 0 5 0 18 0 0 0 0 0 0 0 108 0 0 0 0 0 0 0 0 0 6 4 0 0 0 0 9 5 3 0 0 16 780 30 0 0 72 0 0 0 12 18 0 0 0 0 0 0 0 0 0 0 0 0 0 0 0 0 0 0 0 0 0 1 0 0 63 0 0 0 0 10 0 0 0 261 0 0 0 0 12 0 0 0 0 0 0 0 0 0 0 80 0 0 330 0 0 0 0 0 0 0 0 0 0 0 0 0 0 0 0 0 0 0 0 0 0 0 0 0 0 0 0 0 0 0 0 0 0 0 0 0 0 0 0 0 0 0 0 0 0 0 0 0 0 0 0 0 0 0 0 0 0 0 0 0 0 0 0 0 0 0 0 0 180 0 0 0 0 0 0 0 0 0 0 99 0 0 0 0 0 0 0 0 0 0 0 0 0 0 0 0 0 0 0 0 0 0 0 0 0 0 0 0 0 0 0 0 0 0 0 0 0 0 0 0 0 0 0 0 0 0 0 0 0 0 1 161 0 5 6 0 153 0 1 8 0 17 2 0 0 2 0 0 0 0 0 0 0 0 0 0 49 0 8 0 0 0 4 0 0 0 0 8 0 0 0 0 0 0 0 0 0 0 0 0 0 0 0 0 0 0 0 0 0 0 0 0 0 0 0 0 0 0 0 0 0 0 0 0 0 0 0 0 0 4 0 0 2 0 0 0 0 0 0 0 0 12 0 0 0 0 0 0 0 0 0 0 0 195 0 0 0 33 0 0 16 0 0 0 0 0 0 0 60 0 0 2 0 0 0 0 0 0 0 0 0 0 0 0 0 0 0 0 841 0 0 0 0 0 0 0 0 0 0 0 0 0 0 0 0 0 0 0 0 0 0 0 0 0 0 0 0 0 0 0 0 0 0 0 0 0 0 0 0 0 0 0 0 0 0 0 0 0 3 0 3 0 121 0 0 0 0 10 75 0 0 0 0 0 0 0 0 0 0 0 0 0 0 0 0 0 0 0 0 0 0 0 0 0 0 0 0 0 10 0 0 0 0 0 0 0 0 0 0 0 0 0 0 0 0 0 0 0 0 0 0 0 0 0 0 0 0 0 0 0 0 0 0 0 0 0 0 0 0 0 0 0 0 0 0 0 0 0 0 0 0 0 0 0 0 0 0 0 0 0 0 0 0 0 0 0 0 0 0 0 Printing Sanity3
offset_index value2615
offset list size2615
reward size2615
potential size2615
-----------------------------------------------------------------------------------------------------------------------------------------------------------------------------------------------------

DRAM Statistics
 CHANNEL 0
 RQ ROW_BUFFER_HIT:     195713  ROW_BUFFER_MISS:     474334
 DBUS_CONGESTED:        413
 WQ ROW_BUFFER_HIT:      49195  ROW_BUFFER_MISS:     277122  FULL:          0

 AVG_CONGESTED_CYCLE: 4
 All warmup complete: 2
Channel 0 Bank busy for read cycles: 0
Channel 0 Bank busy for write cycles: 0
Channel 0
Rank 0
0banks busy for read cycles: 441110422
0banks busy for write cycles: 115848
1banks busy for read cycles: 26352569
1banks busy for write cycles: 15426689
2banks busy for read cycles: 12690082
2banks busy for write cycles: 5856075
3banks busy for read cycles: 2557460
3banks busy for write cycles: 2494398
4banks busy for read cycles: 929323
4banks busy for write cycles: 1177267
5banks busy for read cycles: 287805
5banks busy for write cycles: 668839
6banks busy for read cycles: 294413
6banks busy for write cycles: 395976
7banks busy for read cycles: 383999
7banks busy for write cycles: 375340
8banks busy for read cycles: 1518547
8banks busy for write cycles: 1981161

CPU 0 Branch Prediction Accuracy: 99.6928% MPKI: 0.541945 Average ROB Occupancy at Mispredict: 41.029
Branch types
NOT_BRANCH: 164715964 82.358%
BRANCH_DIRECT_JUMP: 3828094 1.91405%
BRANCH_INDIRECT: 11538876 5.76944%
BRANCH_CONDITIONAL: 13709399 6.8547%
BRANCH_DIRECT_CALL: 2543553 1.27178%
BRANCH_INDIRECT_CALL: 560087 0.280043%
BRANCH_RETURN: 3103711 1.55186%
BRANCH_OTHER: 0 0%

DRAM PAGES: 1048576
Allocated PAGES: 6225
