
*** ChampSim Multicore Out-of-Order Simulator ***

Warmup Instructions: 50000000
Simulation Instructions: 200000000
Number of CPUs: 1
LLC sets: 2048
LLC ways: 16
Off-chip DRAM Size: 4096 MB Channels: 1 Width: 64-bit Data Rate: 6400 MT/s
CPU 0 runs traces/spec2k17/srv_53.champsimtrace.xz
.xz
BTB has LRU replacement policy
ITLB has LRU replacement policy
DTLB has LRU replacement policy
STLB has LRU replacement policy
L1I has LRU replacement policy
L1D has LRU replacement policy
Initialize SRRIP state for L2C
Initialize DRRIP state for LLC
Offsets elements: 
Potential of Offsets elements: 
rewards of Offsets elements: 
Printing Sanity1
offset list size1850
Offsets elements: 
Potential of Offsets elements: 
rewards of Offsets elements: 0 407 2215 446 0 1535 0 0 0 0 10 5 0 0 0 0 0 0 0 0 0 0 0 0 59 0 151 0 4 70 6 1 0 376 0 16 1238 26 3 0 0 0 0 0 0 156 0 0 105 1144 0 0 0 0 141 185 0 0 468 0 0 315 0 0 0 0 0 496 0 0 0 0 0 0 44 0 0 0 0 105 0 0 0 0 0 0 0 0 0 0 0 0 0 0 0 0 0 0 0 0 0 45 0 242 0 0 0 0 0 0 0 0 0 0 144 0 0 0 0 0 0 0 0 0 0 0 0 0 30 0 0 0 136 52 0 0 0 0 0 0 0 0 0 0 0 0 0 0 84 0 0 0 0 161 873 0 0 0 0 16 0 0 0 0 187 0 0 0 121 0 0 0 0 65 0 0 0 0 0 0 0 0 0 0 0 0 0 0 0 0 0 0 0 114 0 0 0 0 0 0 0 134 0 0 242 2 3 20 9 0 2 0 0 0 0 2 25 72 26 0 12 5 234 0 0 0 0 0 0 0 0 0 0 0 65 0 0 0 0 0 0 0 0 0 0 0 290 0 0 0 106 0 0 0 50 0 0 0 0 0 200 0 0 0 0 0 164 0 0 0 0 0 0 0 0 0 0 0 0 0 0 0 0 130 0 0 0 0 231 0 189 0 604 0 0 0 0 0 0 0 0 0 0 0 0 0 0 0 0 0 0 0 0 0 0 0 0 0 0 0 0 0 0 0 0 0 0 0 0 0 0 0 3970 0 0 0 0 0 0 0 0 0 0 1243 0 0 0 0 0 0 31 0 0 0 0 0 0 0 0 0 3 24 42 14 21 0 0 0 0 0 4 0 0 0 3 16 0 0 0 0 70 0 0 0 0 0 0 0 0 3 0 0 0 0 0 0 0 0 8 0 0 0 0 0 0 0 13 0 0 0 0 0 0 0 0 0 0 0 0 0 0 0 99 0 0 0 285 0 0 37 0 0 377 0 0 0 0 46 784 0 0 201 12 0 0 0 0 0 0 0 0 0 0 129 271 0 0 0 0 0 0 62 12 0 0 0 0 0 0 0 0 0 0 0 0 0 82 0 0 0 0 0 8 18 0 0 0 0 8 0 0 0 0 0 0 0 0 0 0 0 0 0 0 0 0 13 0 0 0 0 0 0 81 0 0 0 0 0 0 0 0 0 0 3 0 0 0 0 0 10 5 0 993 0 0 0 0 0 0 0 10 0 0 0 0 266 105 65 78 350 0 0 180 0 0 0 0 0 0 533 21 0 0 0 0 364 369 296 0 0 0 0 0 0 0 1120 0 0 0 0 0 0 0 0 0 0 0 0 0 0 0 0 0 0 0 0 0 0 0 0 0 0 314 259 0 0 0 0 0 0 0 9 18 0 0 0 0 319 0 0 0 0 0 0 0 0 0 0 0 0 0 0 0 0 174 0 0 0 0 0 0 0 0 0 0 0 0 0 0 0 0 0 0 0 0 0 0 0 0 0 356 1 0 0 0 0 0 0 0 0 0 0 0 0 0 0 0 0 0 0 0 0 0 0 121 0 0 0 0 0 800 69 0 761 0 0 0 0 0 0 0 440 0 0 50 0 0 0 3 71 0 0 0 150 0 0 0 0 0 234 0 0 0 0 0 0 0 0 0 0 0 0 0 0 0 2087 0 0 0 0 0 0 0 0 0 0 0 1356 1155 847 0 899 0 0 0 0 0 0 0 0 0 0 0 0 0 0 7 0 0 132 0 0 0 0 0 0 0 0 0 0 0 0 0 0 0 0 0 0 0 0 0 0 0 0 0 0 11 0 0 0 0 0 0 0 0 0 0 0 0 0 0 62 0 0 0 0 52 10 0 0 0 0 0 0 0 0 0 0 0 0 0 0 0 0 0 0 0 0 0 0 0 0 0 0 0 0 0 0 0 0 0 0 0 0 0 0 0 0 0 0 0 0 0 0 0 0 0 0 0 0 0 0 0 0 0 0 0 0 0 0 0 1 72 0 0 0 0 0 0 0 0 0 0 0 0 0 0 6 0 0 5 0 0 0 0 0 0 0 0 0 0 0 0 0 0 0 0 0 0 0 0 0 0 0 0 0 0 0 0 0 0 0 0 0 230 0 0 0 0 9 18 28 0 0 0 0 406 0 0 1 0 0 0 38 0 0 0 0 0 0 0 0 0 0 1388 0 0 0 0 0 0 0 0 0 0 0 0 0 0 12 0 0 0 0 0 0 0 0 134 0 0 0 0 0 0 0 0 0 377 892 705 0 0 0 0 0 0 0 918 0 0 0 0 0 0 0 0 0 0 0 0 0 0 0 0 0 0 0 0 0 0 0 0 0 0 0 0 0 0 14 0 30 0 0 20 0 0 0 0 53 0 0 0 0 0 0 0 0 0 0 0 0 0 0 0 0 0 0 0 1008 0 0 0 0 0 0 0 0 0 0 0 0 0 0 0 0 0 0 0 0 0 0 0 0 0 0 0 0 0 0 0 0 0 0 0 0 0 8 0 0 0 0 37 0 0 4 0 0 23 0 4 0 86 0 0 0 0 0 0 0 42 0 2 3 76 0 0 6 0 0 25 0 0 0 96 0 0 0 0 6 0 0 0 0 0 0 0 0 0 0 0 0 0 0 0 1 0 0 0 0 0 0 0 0 0 0 0 0 3 28 45 0 0 12 0 0 0 0 0 0 0 0 0 7 0 0 0 0 0 0 0 0 0 0 0 15 0 0 14 11 0 0 0 0 0 0 0 0 0 0 0 0 0 0 0 0 0 0 0 0 0 0 0 0 0 0 0 0 0 0 0 0 0 0 0 0 0 0 0 0 0 0 0 0 0 0 0 0 0 0 0 0 0 0 0 0 0 0 0 0 0 0 0 0 0 0 0 0 0 11 0 0 0 0 0 0 0 0 0 0 0 0 0 0 0 0 0 0 0 0 0 0 0 0 0 0 77 0 0 0 62 0 0 0 0 0 0 0 0 0 0 0 0 0 0 0 0 0 0 0 0 0 0 0 0 0 0 0 0 0 0 0 0 0 0 0 0 0 0 0 0 0 0 0 290 0 0 0 0 0 0 0 0 0 0 0 0 0 0 0 0 0 0 0 0 68 0 0 0 0 0 0 0 0 0 22 0 0 0 0 0 0 0 0 0 0 0 0 0 0 0 0 0 0 0 0 0 0 15 0 0 0 0 0 0 0 0 0 0 0 100 0 0 0 0 0 4 0 0 1 0 0 0 387 287 10 228 79 58 3 57 0 15 0 0 0 0 0 0 0 0 0 0 0 0 0 0 0 0 0 0 0 0 0 0 0 60 3 0 0 0 0 0 0 0 0 0 0 0 0 0 6 0 0 0 0 0 0 0 0 0 0 0 0 0 0 0 0 60 2 0 0 30 0 0 0 0 0 0 0 0 0 0 0 0 0 0 0 0 0 0 0 0 0 0 0 0 0 0 0 0 0 0 0 0 0 0 0 0 0 0 0 0 0 0 0 0 0 0 0 0 0 0 0 0 0 0 0 0 0 0 22 6 20 23 0 0 0 0 0 96 0 33 0 0 0 0 0 0 0 0 0 0 74 0 0 0 43 36 77 0 0 0 0 0 0 0 0 0 207 0 0 0 0 0 0 0 0 0 0 0 0 0 0 0 0 0 0 0 0 0 0 0 0 0 0 0 0 0 0 0 0 0 0 0 0 0 0 0 0 0 30 0 0 0 4 0 0 0 0 0 0 3 0 0 0 0 377 13 0 0 1 0 3 2 0 0 0 0 0 0 0 0 0 0 0 0 0 0 0 0 0 0 0 0 0 0 0 0 0 0 0 0 0 0 0 0 26 0 0 0 0 0 0 0 0 0 3 0 0 0 0 0 0 0 67 0 4 15 0 0 0 0 0 0 0 0 0 0 0 20 0 0 0 0 0 0 0 0 0 0 0 0 29 0 0 0 0 0 0 136 0 0 0 0 0 0 0 4 0 0 0 0 0 0 0 0 0 0 0 0 0 0 0 0 6 0 0 0 0 0 0 0 0 0 0 0 0 0 0 1 16 0 0 0 0 0 0 1 0 0 0 0 0 0 0 0 0 0 0 0 0 0 0 0 0 0 0 0 0 0 0 0 15 0 0 0 0 0 0 0 0 0 0 0 0 0 0 0 0 0 0 0 0 88 0 0 39 62 0 
Printing Sanity2
Heartbeat CPU 0 instructions: 10000002 cycles: 2960649 heartbeat IPC: 3.37764 cumulative IPC: 3.37764 (Simulation time: 0 hr 0 min 19 sec) 
Heartbeat CPU 0 instructions: 20000002 cycles: 5942826 heartbeat IPC: 3.35326 cumulative IPC: 3.3654 (Simulation time: 0 hr 0 min 37 sec) 
Heartbeat CPU 0 instructions: 30000001 cycles: 8931626 heartbeat IPC: 3.34582 cumulative IPC: 3.35885 (Simulation time: 0 hr 0 min 55 sec) 
*** Reached end of trace for Core: 0 Repeating trace: traces/spec2k17/srv_53.champsimtrace.xz
Heartbeat CPU 0 instructions: 40000001 cycles: 11915781 heartbeat IPC: 3.35103 cumulative IPC: 3.35689 (Simulation time: 0 hr 1 min 14 sec) 
Heartbeat CPU 0 instructions: 50000002 cycles: 14896020 heartbeat IPC: 3.35544 cumulative IPC: 3.3566 (Simulation time: 0 hr 1 min 32 sec) 

Warmup complete CPU 0 instructions: 50000002 cycles: 14896020 (Simulation time: 0 hr 1 min 32 sec) 

Heartbeat CPU 0 instructions: 60000000 cycles: 43864427 heartbeat IPC: 0.345204 cumulative IPC: 0.345204 (Simulation time: 0 hr 2 min 4 sec) 
*** Reached end of trace for Core: 0 Repeating trace: traces/spec2k17/srv_53.champsimtrace.xz
Heartbeat CPU 0 instructions: 70000001 cycles: 73562239 heartbeat IPC: 0.336725 cumulative IPC: 0.340912 (Simulation time: 0 hr 2 min 38 sec) 
Heartbeat CPU 0 instructions: 80000000 cycles: 102179132 heartbeat IPC: 0.349444 cumulative IPC: 0.343709 (Simulation time: 0 hr 3 min 10 sec) 
Heartbeat CPU 0 instructions: 90000000 cycles: 130695037 heartbeat IPC: 0.350681 cumulative IPC: 0.345426 (Simulation time: 0 hr 3 min 41 sec) 
*** Reached end of trace for Core: 0 Repeating trace: traces/spec2k17/srv_53.champsimtrace.xz
Heartbeat CPU 0 instructions: 100000001 cycles: 160858671 heartbeat IPC: 0.331525 cumulative IPC: 0.342553 (Simulation time: 0 hr 4 min 14 sec) 
Heartbeat CPU 0 instructions: 110000000 cycles: 189356199 heartbeat IPC: 0.350908 cumulative IPC: 0.343918 (Simulation time: 0 hr 4 min 46 sec) 
Heartbeat CPU 0 instructions: 120000000 cycles: 217321597 heartbeat IPC: 0.357585 cumulative IPC: 0.345806 (Simulation time: 0 hr 5 min 17 sec) 
*** Reached end of trace for Core: 0 Repeating trace: traces/spec2k17/srv_53.champsimtrace.xz
Heartbeat CPU 0 instructions: 130000002 cycles: 247928211 heartbeat IPC: 0.326727 cumulative IPC: 0.3433 (Simulation time: 0 hr 5 min 51 sec) 
Heartbeat CPU 0 instructions: 140000000 cycles: 276340249 heartbeat IPC: 0.351963 cumulative IPC: 0.344242 (Simulation time: 0 hr 6 min 22 sec) 
Heartbeat CPU 0 instructions: 150000003 cycles: 304713855 heartbeat IPC: 0.35244 cumulative IPC: 0.345044 (Simulation time: 0 hr 6 min 53 sec) 
*** Reached end of trace for Core: 0 Repeating trace: traces/spec2k17/srv_53.champsimtrace.xz
Heartbeat CPU 0 instructions: 160000003 cycles: 334496565 heartbeat IPC: 0.335765 cumulative IPC: 0.34418 (Simulation time: 0 hr 7 min 26 sec) 
Heartbeat CPU 0 instructions: 170000001 cycles: 363398563 heartbeat IPC: 0.345997 cumulative IPC: 0.34433 (Simulation time: 0 hr 7 min 59 sec) 
Heartbeat CPU 0 instructions: 180000003 cycles: 392009729 heartbeat IPC: 0.349514 cumulative IPC: 0.344724 (Simulation time: 0 hr 8 min 31 sec) 
*** Reached end of trace for Core: 0 Repeating trace: traces/spec2k17/srv_53.champsimtrace.xz
Heartbeat CPU 0 instructions: 190000000 cycles: 420606878 heartbeat IPC: 0.349685 cumulative IPC: 0.345073 (Simulation time: 0 hr 9 min 3 sec) 
Heartbeat CPU 0 instructions: 200000003 cycles: 450684259 heartbeat IPC: 0.332476 cumulative IPC: 0.344204 (Simulation time: 0 hr 9 min 35 sec) 
Heartbeat CPU 0 instructions: 210000001 cycles: 479031531 heartbeat IPC: 0.352768 cumulative IPC: 0.344727 (Simulation time: 0 hr 10 min 6 sec) 
*** Reached end of trace for Core: 0 Repeating trace: traces/spec2k17/srv_53.champsimtrace.xz
Heartbeat CPU 0 instructions: 220000000 cycles: 506270966 heartbeat IPC: 0.367115 cumulative IPC: 0.345968 (Simulation time: 0 hr 10 min 38 sec) 
Heartbeat CPU 0 instructions: 230000002 cycles: 537370861 heartbeat IPC: 0.321545 cumulative IPC: 0.344514 (Simulation time: 0 hr 11 min 12 sec) 
Heartbeat CPU 0 instructions: 240000002 cycles: 565730755 heartbeat IPC: 0.352611 cumulative IPC: 0.344931 (Simulation time: 0 hr 11 min 43 sec) 
*** Reached end of trace for Core: 0 Repeating trace: traces/spec2k17/srv_53.champsimtrace.xz
Heartbeat CPU 0 instructions: 250000002 cycles: 593288436 heartbeat IPC: 0.362875 cumulative IPC: 0.345786 (Simulation time: 0 hr 12 min 14 sec) 
Finished CPU 0 instructions: 200000000 cycles: 578392416 cumulative IPC: 0.345786 (Simulation time: 0 hr 12 min 14 sec) 

ChampSim completed all CPUs

Region of Interest Statistics

CPU 0 cumulative IPC: 0.345786 instructions: 200000000 cycles: 578392416
ITLB TOTAL     ACCESS:   34960702  HIT:   33698304  MISS:    1262398  HIT %:    96.3891  MISS %:    3.61091   MPKI: 6.31199
ITLB LOAD TRANSLATION ACCESS:   34960702  HIT:   33698304  MISS:    1262398  HIT %:    96.3891  MISS %:    3.61091   MPKI: 6.31199
ITLB PREFETCH  REQUESTED:          0  ISSUED:          0  USEFUL:          0  USELESS:          0
ITLB USEFUL LOAD PREFETCHES:          0 PREFETCH ISSUED TO LOWER LEVEL:          0  ACCURACY: -nan
ITLB TIMELY PREFETCHES:          0 LATE PREFETCHES: 0 DROPPED PREFETCHES: 0
ITLB PREFETCHES SAME FILL-ORIGIN LEVEL: 0 DIFFERENT FILL-ORIGIN LEVEL: 0
ITLB AVERAGE MISS LATENCY: 10.0166 cycles
ITLB RQ	ACCESS:   39935782	FORWARD:          0	MERGED:    4620260	TO_CACHE:   35315522

DTLB TOTAL     ACCESS:   35700211  HIT:   34444241  MISS:    1255970  HIT %:    96.4819  MISS %:     3.5181   MPKI: 6.27985
DTLB LOAD TRANSLATION ACCESS:   35700211  HIT:   34444241  MISS:    1255970  HIT %:    96.4819  MISS %:     3.5181   MPKI: 6.27985
DTLB PREFETCH  REQUESTED:          0  ISSUED:          0  USEFUL:          0  USELESS:          0
DTLB USEFUL LOAD PREFETCHES:          0 PREFETCH ISSUED TO LOWER LEVEL:          0  ACCURACY: -nan
DTLB TIMELY PREFETCHES:          0 LATE PREFETCHES: 0 DROPPED PREFETCHES: 0
DTLB PREFETCHES SAME FILL-ORIGIN LEVEL: 0 DIFFERENT FILL-ORIGIN LEVEL: 0
DTLB AVERAGE MISS LATENCY: 12.8795 cycles
DTLB RQ	ACCESS:   48377578	FORWARD:          0	MERGED:   12606264	TO_CACHE:   35771314

STLB TOTAL     ACCESS:   24940412  HIT:   24848971  MISS:      91441  HIT %:    99.6334  MISS %:   0.366638   MPKI: 0.457205
STLB LOAD TRANSLATION ACCESS:    2518368  HIT:    2427827  MISS:      90541  HIT %:    96.4048  MISS %:    3.59523   MPKI: 0.452705
STLB TRANSLATION FROM L1D PREFETCHER ACCESS:   22422044  HIT:   22421144  MISS:        900  HIT %:     99.996  MISS %: 0.00401391   MPKI: 0.0045
STLB PREFETCH  REQUESTED:          0  ISSUED:          0  USEFUL:        864  USELESS:         35
STLB USEFUL LOAD PREFETCHES:        864 PREFETCH ISSUED TO LOWER LEVEL:          0  ACCURACY: inf
STLB TIMELY PREFETCHES:        864 LATE PREFETCHES: 83 DROPPED PREFETCHES: 62953
STLB PREFETCHES SAME FILL-ORIGIN LEVEL: 0 DIFFERENT FILL-ORIGIN LEVEL: 0
STLB AVERAGE MISS LATENCY: 67.5882 cycles
STLB RQ	ACCESS:   29879877	FORWARD:          0	MERGED:    4876370	TO_CACHE:   25003507

STLB Hit, L1D data hit: 0
STLB Hit, L2C data hit: 0
STLB Hit, LLC data hit: 0
STLB Hit, LLC data miss: 0
STLB STLB hints to L2: 0
L1D TOTAL     ACCESS:   74290015  HIT:   69721738  MISS:    4568277  HIT %:    93.8508  MISS %:    6.14925   MPKI: 22.8414
L1D LOAD      ACCESS:   27907894  HIT:   26009572  MISS:    1898322  HIT %:    93.1979  MISS %:     6.8021   MPKI: 9.49161
L1D RFO       ACCESS:   19367795  HIT:   18615262  MISS:     752533  HIT %:    96.1145  MISS %:    3.88549   MPKI: 3.76267
L1D PREFETCH  ACCESS:   27014326  HIT:   25096904  MISS:    1917422  HIT %:    92.9022  MISS %:     7.0978   MPKI: 9.58711
AGUS PREFETCH L1 MISS: 0
L1D PREFETCH  REQUESTED:   55366204  ISSUED:   55366167  USEFUL:     508197  USELESS:    1409229
L1D USEFUL LOAD PREFETCHES:     508197 PREFETCH ISSUED TO LOWER LEVEL:    1965113  ACCURACY: 25.861
L1D TIMELY PREFETCHES:     508197 LATE PREFETCHES: 40018 DROPPED PREFETCHES: 62962
L1D PREFETCHES SAME FILL-ORIGIN LEVEL: 1965113 DIFFERENT FILL-ORIGIN LEVEL: 0
L1D AVERAGE MISS LATENCY: 3.16276e+06 cycles
L1D RQ	ACCESS:   37434300	FORWARD:          0	MERGED:    9250011	TO_CACHE:   28004695
L1D WQ	ACCESS:   20546814	FORWARD:     200143	MERGED:     173931	TO_CACHE:   20372883
L1D PQ	ACCESS:   28004658	FORWARD:          0	MERGED:     622600	TO_CACHE:   27361509

L1D UNIQUE REGIONS ACCESSED: 0
L1D REGIONS CONFLICTS: 0
L1D Cross Page Prefetch Requests: 505547
L1D Same Page Prefetch Requests: 32885541
L1D ROI Sum of L1D PQ occupancy: 354750441
L1D PREFETCHES PUSHED FROM L2C: 0
L1I TOTAL     ACCESS:   38971356  HIT:   32548208  MISS:    6423148  HIT %:    83.5183  MISS %:    16.4817   MPKI: 32.1157
L1I LOAD      ACCESS:   38971356  HIT:   32548208  MISS:    6423148  HIT %:    83.5183  MISS %:    16.4817   MPKI: 32.1157
L1I PREFETCH  REQUESTED:          0  ISSUED:          0  USEFUL:          0  USELESS:          0
L1I USEFUL LOAD PREFETCHES:          0 PREFETCH ISSUED TO LOWER LEVEL:          0  ACCURACY: -nan
L1I TIMELY PREFETCHES:          0 LATE PREFETCHES: 0 DROPPED PREFETCHES: 0
L1I PREFETCHES SAME FILL-ORIGIN LEVEL: 0 DIFFERENT FILL-ORIGIN LEVEL: 0
L1I AVERAGE MISS LATENCY: 23.5948 cycles
L1I RQ	ACCESS:   62490549	FORWARD:          0	MERGED:   22554767	TO_CACHE:   39935782

BTB TOTAL     ACCESS:   34622254  HIT:   26061225  MISS:    8561029  HIT %:     75.273  MISS %:     24.727   MPKI: 42.8051
BTB BRANCH_DIRECT_JUMP	ACCESS:    1794172  HIT:    1215537  MISS:     578635
BTB BRANCH_INDIRECT	ACCESS:   10896773  HIT:    7278891  MISS:    3617882
BTB BRANCH_CONDITIONAL	ACCESS:   13847255  HIT:   13154489  MISS:     692766
BTB BRANCH_DIRECT_CALL	ACCESS:    3261049  HIT:    2171836  MISS:    1089213
BTB BRANCH_INDIRECT_CALL	ACCESS:     780950  HIT:     418247  MISS:     362703
BTB BRANCH_RETURN	ACCESS:    4042055  HIT:    1822225  MISS:    2219830
BTB BRANCH_OTHER ACCESS:          0  HIT:          0  MISS:          0

L2C TOTAL     ACCESS:   12856573  HIT:    8878653  MISS:    3977920  HIT %:    69.0593  MISS %:    30.9407   MPKI: 19.8896
L2C LOAD      ACCESS:    8281413  HIT:    5630020  MISS:    2651393  HIT %:    67.9838  MISS %:    32.0162   MPKI: 13.257
L2C DATA LOAD MPKI: 3.23664
L2C INSTRUCTION LOAD MPKI: 10.0203
L2C RFO       ACCESS:     744830  HIT:     347308  MISS:     397522  HIT %:    46.6292  MISS %:    53.3708   MPKI: 1.98761
L2C PREFETCH  ACCESS:    1965102  HIT:    1196916  MISS:     768186  HIT %:    60.9086  MISS %:    39.0914   MPKI: 3.84093
AGUS PREFETCH L1 MISS: 0
L2C DATA PREFETCH MPKI: 3.84093
L2C INSTRUCTION PREFETCH MPKI: 0
L2C WRITEBACK ACCESS:    1613393  HIT:    1533604  MISS:      79789  HIT %:    95.0546  MISS %:    4.94542   MPKI: 0.398945
L2C LOAD TRANSLATION ACCESS:     140442  HIT:      62088  MISS:      78354  HIT %:     44.209  MISS %:     55.791   MPKI: 0.39177
L2C TRANSLATION FROM L1D PREFETCHER ACCESS:     111393  HIT:     108717  MISS:       2676  HIT %:    97.5977  MISS %:    2.40231   MPKI: 0.01338
L2C PREFETCH  REQUESTED:          0  ISSUED:          0  USEFUL:      57202  USELESS:     713343
L2C USEFUL LOAD PREFETCHES:      57202 PREFETCH ISSUED TO LOWER LEVEL:     768186  ACCURACY: 7.44637
L2C TIMELY PREFETCHES:      57202 LATE PREFETCHES: 0 DROPPED PREFETCHES: 0
L2C PREFETCHES SAME FILL-ORIGIN LEVEL: 0 DIFFERENT FILL-ORIGIN LEVEL: 0
L2C AVERAGE MISS LATENCY: 40.324 cycles
L2C RQ	ACCESS:    9278147	FORWARD:          0	MERGED:          0	TO_CACHE:    9278078
L2C WQ	ACCESS:    1613393	FORWARD:         80	MERGED:          0	TO_CACHE:    1613393
L2C PQ	ACCESS:    1965113	FORWARD:          0	MERGED:          0	TO_CACHE:    1965102

L2C Instructions Evicting Data 880359
L2C Translations Evicting Data 44762
L2C Data Evicting Data 926022
L2C Instructions Evicting Instructions 1089613
L2C Translations Evicting Instructions 34250
L2C Data Evicting Instructions 843620
L2C Instructions Evicting Translations 34094
L2C Translations Evicting Translations 2018
L2C Data Evicting Translations 43393
L2C Dense regions hint from L2: 0
PSCL5 TOTAL     ACCESS:     154394  HIT:     154394  MISS:          0  HIT %:        100  MISS %:          0   MPKI: 0
PSCL5 LOAD TRANSLATION ACCESS:      90458  HIT:      90458  MISS:          0  HIT %:        100  MISS %:          0   MPKI: 0
PSCL5 TRANSLATION FROM L1D PREFETCHER ACCESS:      63936  HIT:      63936  MISS:          0  HIT %:        100  MISS %:          0   MPKI: 0
PSCL5 PREFETCH  REQUESTED:          0  ISSUED:          0  USEFUL:          0  USELESS:          0
PSCL5 USEFUL LOAD PREFETCHES:          0 PREFETCH ISSUED TO LOWER LEVEL:          0  ACCURACY: -nan
PSCL5 TIMELY PREFETCHES:          0 LATE PREFETCHES: 0 DROPPED PREFETCHES: 0
PSCL5 PREFETCHES SAME FILL-ORIGIN LEVEL: 0 DIFFERENT FILL-ORIGIN LEVEL: 0

PSCL4 TOTAL     ACCESS:     149974  HIT:     149579  MISS:        395  HIT %:    99.7366  MISS %:   0.263379   MPKI: 0.001975
PSCL4 LOAD TRANSLATION ACCESS:      89828  HIT:      89433  MISS:        395  HIT %:    99.5603  MISS %:   0.439729   MPKI: 0.001975
PSCL4 TRANSLATION FROM L1D PREFETCHER ACCESS:      60146  HIT:      60146  MISS:          0  HIT %:        100  MISS %:          0   MPKI: 0
PSCL4 PREFETCH  REQUESTED:          0  ISSUED:          0  USEFUL:          0  USELESS:          0
PSCL4 USEFUL LOAD PREFETCHES:          0 PREFETCH ISSUED TO LOWER LEVEL:          0  ACCURACY: -nan
PSCL4 TIMELY PREFETCHES:          0 LATE PREFETCHES: 0 DROPPED PREFETCHES: 0
PSCL4 PREFETCHES SAME FILL-ORIGIN LEVEL: 0 DIFFERENT FILL-ORIGIN LEVEL: 0

PSCL3 TOTAL     ACCESS:     140930  HIT:     128047  MISS:      12883  HIT %:    90.8586  MISS %:    9.14142   MPKI: 0.064415
PSCL3 LOAD TRANSLATION ACCESS:      82524  HIT:      69641  MISS:      12883  HIT %:    84.3888  MISS %:    15.6112   MPKI: 0.064415
PSCL3 TRANSLATION FROM L1D PREFETCHER ACCESS:      58406  HIT:      58406  MISS:          0  HIT %:        100  MISS %:          0   MPKI: 0
PSCL3 PREFETCH  REQUESTED:          0  ISSUED:          0  USEFUL:          0  USELESS:          0
PSCL3 USEFUL LOAD PREFETCHES:          0 PREFETCH ISSUED TO LOWER LEVEL:          0  ACCURACY: -nan
PSCL3 TIMELY PREFETCHES:          0 LATE PREFETCHES: 0 DROPPED PREFETCHES: 0
PSCL3 PREFETCHES SAME FILL-ORIGIN LEVEL: 0 DIFFERENT FILL-ORIGIN LEVEL: 0

PSCL2 TOTAL     ACCESS:     111641  HIT:      74631  MISS:      37010  HIT %:    66.8491  MISS %:    33.1509   MPKI: 0.18505
PSCL2 LOAD TRANSLATION ACCESS:      90645  HIT:      53635  MISS:      37010  HIT %:    59.1704  MISS %:    40.8296   MPKI: 0.18505
PSCL2 TRANSLATION FROM L1D PREFETCHER ACCESS:      20996  HIT:      20996  MISS:          0  HIT %:        100  MISS %:          0   MPKI: 0
PSCL2 PREFETCH  REQUESTED:          0  ISSUED:          0  USEFUL:          0  USELESS:          0
PSCL2 USEFUL LOAD PREFETCHES:          0 PREFETCH ISSUED TO LOWER LEVEL:          0  ACCURACY: -nan
PSCL2 TIMELY PREFETCHES:          0 LATE PREFETCHES: 0 DROPPED PREFETCHES: 0
PSCL2 PREFETCHES SAME FILL-ORIGIN LEVEL: 0 DIFFERENT FILL-ORIGIN LEVEL: 0

LLC TOTAL     ACCESS:    4675410  HIT:    4438557  MISS:     236853  HIT %:    94.9341  MISS %:    5.06593   MPKI: 1.18426
LLC LOAD      ACCESS:    2651393  HIT:    2572094  MISS:      79299  HIT %:    97.0092  MISS %:    2.99084   MPKI: 0.396495
LLC RFO       ACCESS:     397515  HIT:     325650  MISS:      71865  HIT %:    81.9214  MISS %:    18.0786   MPKI: 0.359325
LLC PREFETCH  ACCESS:     768167  HIT:     691070  MISS:      77097  HIT %:    89.9635  MISS %:    10.0365   MPKI: 0.385485
AGUS PREFETCH L1 MISS: 0
LLC WRITEBACK ACCESS:     777305  HIT:     776604  MISS:        701  HIT %:    99.9098  MISS %:  0.0901834   MPKI: 0.003505
LLC LOAD TRANSLATION ACCESS:      78354  HIT:      70747  MISS:       7607  HIT %:    90.2915  MISS %:     9.7085   MPKI: 0.038035
LLC TRANSLATION FROM L1D PREFETCHER ACCESS:       2676  HIT:       2392  MISS:        284  HIT %:    89.3871  MISS %:    10.6129   MPKI: 0.00142
LLC PREFETCH  REQUESTED:          0  ISSUED:          0  USEFUL:       3819  USELESS:      73797
LLC USEFUL LOAD PREFETCHES:       3819 PREFETCH ISSUED TO LOWER LEVEL:      77097  ACCURACY: 4.9535
LLC TIMELY PREFETCHES:       3819 LATE PREFETCHES: 0 DROPPED PREFETCHES: 0
LLC PREFETCHES SAME FILL-ORIGIN LEVEL: 0 DIFFERENT FILL-ORIGIN LEVEL: 0
LLC AVERAGE MISS LATENCY: 183.492 cycles
LLC RQ	ACCESS:    3129945	FORWARD:          0	MERGED:          0	TO_CACHE:    3129938
LLC WQ	ACCESS:     777305	FORWARD:         26	MERGED:          0	TO_CACHE:     777305
LLC PQ	ACCESS:     768186	FORWARD:          0	MERGED:          0	TO_CACHE:     768167

LLC Dense regions hint to LLC: 0

RAW hits: 1864207
Loads Generated: 39298507
Loads sent to L1D: 37434300
Stores Generated: 20546814
Stores sent to L1D: 20546814
Major fault: 0 Minor fault: 4418
Allocated PAGES: 4418
ucb ended
-----------------------------------------------------------------------------------------------------------------------------------------------------------------------------------------------------
Offsets elements: -10142676 -4 1 4 10142676 -1 -10142680 10141981 -10141982 -2200619361715 2200629505689 -2200629505689 2200619361719 10142677 -10142677 -5613 10148290 -10145218 2541 -10142678 -3564 3563 156159 9986516 18 -10168932 26 10168190 -2200629503697 -2200629505670 2200629505682 -1439 1393 35 -10170209 10170209 2 -2200629505677 2448 2200619359250 10143976 -10143975 2200619335473 10170197 -10170198 -10 -2200619449862 2200619449864 -380128 -3 10550337 -10170206 -380131 380130 -53 49 26263 -26234 -6 26208 -26228 3 -2200619332973 2200618952842 10170207 -10157429 -2200619346193 -2 2200618953289 380132 -380132 10548648 -10548649 380131 -380133 406358 -406359 -380129 380156 -30 10170173 -2200629505655 2200619335483 -380130 10550113 -10169981 -390049 10560219 -10560224 10560253 -10560253 10560222 -10560223 9920 -9920 9921 -9922 -970889 11531112 -11531113 11531115 33 -10560256 10560223 10560226 10560221 -10560222 10560225 -10560226 -10143945 10143943 -10560221 416279 -26219 -15 -2200629620035 2200629620035 -10170174 10170175 416278 10143942 10143945 -416277 9918 406359 -26279 26282 -26283 52 26228 -26280 -380078 380078 -52 -380076 380079 10170255 -10170259 380082 -380080 -380077 10550334 -10170258 26280 -26232 -10170155 -2200619335481 2200629505669 -40 10170249 -10170250 10170196 -10170196 -13 -39 10168513 -10168526 26286 -26249 61 26240 -26270 -2200619292640 2200619292624 36 26526 -26563 10170208 -34 -10143663 10143699 -10143698 -26566 37 10168223 -10141702 -26565 26566 26571 -288225246695613800 23755969 288225246681999804 -10168543 -2200619452392 2200619452405 26560 -2200619361968 2200619361968 -2200615847324 2200615847324 -2561 2560 -25962 -26 23427 -2200615844763 2200615844763 2200615847322 -2200615847322 25958 -25984 15 25973 -25983 10 -2200619335999 2200629503697 2200629504003 1652 -10169674 10169689 2200619359519 10143707 -10143707 -2200619361963 2200619335993 10169677 -10169688 -2200619450382 2200619450396 -380651 572 -380648 380651 10169683 -10169687 -380650 380650 -380652 380652 -380649 380676 10169623 -10169690 30 -380679 406627 -2200619361980 2200629505466 -10550113 -2200619333952 2200618953301 380027 26601 -406627 -390571 -31 -980810 970889 -10143677 10143675 416547 -25982 10169688 -572 -2200619449809 2200629620068 -2200629503637 2200619333380 380087 -8 26548 -26548 -2200619333951 2200619359929 -25976 7 -390570 10560255 -10170263 10168268 -10168268 26552 -26550 10170258 -10143708 10143708 10170261 -25981 10169690 -2200629620071 2200619476363 10143706 -35 -10143670 -25959 25960 25986 6 -2200619335429 19 2200629505670 12 -10170261 10170225 -10170226 10170227 -10143668 -416555 -380075 -380079 416556 10169652 -10169653 25988 -26560 625 571 -624 26609 -26556 10550335 -10550335 26556 -25985 573 -10169686 25985 -26561 -10170207 -10169676 -10169678 10170248 -10170248 585 10167941 -10167954 25991 -25954 -563 -2200619293242 2200619293212 -16 23383 -23420 23992 10146268 -10146233 10146267 -10146266 -23424 -2200619302522 2200619302522 5 -23433 10167651 -10144262 23434 -288225246671855271 1465127137395 -84 -1465150893282 1465150893281 -1465127137315 1465972468385 288223780709531419 -10167971 -288223780699354894 288223780699354894 -2200619452964 2200619452977 23428 -2200619359410 2200619359409 23439 -2200615844774 2200615844764 -288223781544717956 -1465150893277 1465150893357 -1465150893496 46960 1465996186081 -1465996233115 47036 -47035 1465994137308 -1465994137101 1465150893290 -1465150891232 44769 -46959 1465150893416 845339624 -2427744 -842911881 -1465150893415 1465150893418 -1465150890371 1465996229994 -845339623 -1465127137321 1465127137324 -1465127136065 -23757507 23757386 -23757586 23757707 -121 -1135 1258 -23740644 23739388 -23756174 23757309 -23739589 -15455 23755044 -23738246 23738245 -23756096 1465150893430 -1465150890384 1465150890373 -1465127137323 1134 1465972475807 -1465996215395 23738455 -23756100 23757234 1465972475806 -1465996233040 23756099 1465972476940 -845339598 -9 -1465150893433 1465150893452 -21 845339609 -845339609 25 -1465127136178 -23757692 23757692 -23754413 -2880 1465996233040 -1465972475749 -23757162 -27 1465996161260 -845267809 845267871 69 -848227272 848227347 -848227347 848227141 -848227201 2959250 -2959226 8 -33 848227346 -848226618 2958520 -2959248 2959253 -1465150893442 -1465996232900 -94756 94761 -94761 94755 -94755 94741 -94741 1465150987993 -1465150987992 112394 -17640 25095 1465150868145 -1465150868145 16 -25111 -93345 1465150986582 -1465150868129 25127 1465150868113 -1465150986579 118466 -25127 1465150893240 -1465150868121 -25119 -93340 118455 -25115 -1465150986581 118458 -118458 118459 -25118 -93341 1465150986581 -1465150868122 1465150868121 -1465150875567 1465150875568 -1465150893378 1465150893443 -65 845339662 2265 866 -3056 -1465996233275 22151 38 1465150871487 -1465150893441 845339597 -1465150863086 1465150863088 -1465127136151 -23757292 1465150893450 845339590 -845339596 1465127136159 -2958531 2958531 -1465127136161 -23757168 23757167 1465127136162 1465127136161 -1465127136181 9 -23739637 23739588 66 1465127136153 -1465150875810 23739585 113 -109 -23757233 23757344 -87 1465972475784 -1465996232966 -149 -226 2491 690 1465993735869 -1465993735702 -167 1465994134365 -1465970379988 -23757331 23757334 1465969981491 -1465993736559 -2190 -1465127136196 1465127136193 -1465150890404 -2494289 -1465993735871 -2955 3047 1465996229993 -1465996216816 -16299 46220 -45363 1465994134265 -1465994121087 -16224 2880 45531 1465996184629 1465994135119 -1465994134262 45363 -32186 32187 -45532 45536 -48277 -1465150845063 -48323 48324 288225246705707470 23426 2200619359408 -2200615785364 2200615785619 -23710 -2200615761910 2200615785364 255 -23735 23735 -2200615785619 2200615761909 -25 14 10167733 -10167748 -2200619335949 1687 -2200629505675 2200619335945 -2200619335947 2200629505642 -2200629503192 2200629503229 -2200629503229 2200629503227 2200619335941 -11 -2200619450330 2200619450344 -380599 380648 10169738 -10169735 380595 -380598 380602 10169735 380599 -380600 380598 23467 -2200619357368 2200619333899 27 -380597 380596 -2200619335952 2200629505655 -468 -390050 389995 390048 389946 -389945 9922 10550302 -11531112 -10560225 10560256 -10560257 413986 -413986 -2200629503603 2200619357369 -23474 10169740 -10169739 -2200619450381 -10169729 11 -60 -380594 404071 -2200619357373 2200629503640 -2200619450380 2200629620069 10169651 -10169681 23451 -23478 23480 -288225246695611240 48301 1465150845013 -1465150877222 32209 1465150845014 -1465150893522 1465150893525 -1465150845040 -48410 -301 375 1465150893527 -1465150891262 1465150891264 -1465150875809 1465996215395 -1465996230160 166 23754183 17 -23757272 1465993738749 -1465969981493 -2095795 -398494 -1465993738826 16299 2190 45530 1465996184631 3122 1465994134264 -1465994088902 -32185 -14034 75 48411 -45365 13178 1465996230850 -1465996184630 1465994088899 -1465994088898 -45364 45367 -5 -45531 45532 -48278 -1465150893386 48326 288225246705707468 -2200619359407 2200619359410 -2200615812496 2200615813007 -24070 23584 511 -2200615813007 2200615788912 -24 10167841 -10168158 -2200619335845 2200619335841 -2200619335843 2200619335837 -2200619450226 2200619450240 -380495 10169687 -10550337 -51 53 29 23396 20 -23592 -2200619333335 2200619345747 -392905 380495 -2200619333781 2200629503624 -1687 -10168156 -380523 -2200618955353 -2200618953301 2200619333796 521 -520 520 -390415 31 10560224 10550304 -11531114 11531113 -10146239 10146235 413987 -23578 10169844 -10169843 156 2200619333952 -156 -2200619333796 23574 -404066 404067 -404070 10146264 -10146263 10146265 -10169844 10169846 23423 10146263 -10169785 157 -2200619473806 2200619473808 48304 1465150845010 1465150877224 -1465150893523 48486 -46220 1465150893449 -1465150890402 845339589 -845339586 -17645 23757230 -1465996233341 1465993738675 -1465993738824 23757331 -1465150893525 16224 -13344 23754394 1465970379971 -1465994135055 1465993736559 2494291 23708874 -23754234 -1465970380055 -23708846 1465993690341 46219 32186 -45530 -48486 48485 1465994137309 -1465994121085 -1465996184629 45538 -48279 48299 1465150845058 -1465150845058 -48328 48329 288225246705707465 -2200615793552 2200615794319 -24429 -2200615769890 -24455 -2200615769864 2200615769890 10167955 -10167945 -2200619335739 -10146230 -10169934 10169951 2200619333290 -2200619333293 -2200629620070 2200619450123 -2200619333280 -2443 2200619335724 -380391 10169686 -10169946 -380387 380391 10169945 -10169943 -380392 380390 -380390 -380389 380416 10169883 -10169950 -380419 2200619333692 469 -207 104 -390414 390412 10169809 -10550303 390516 -390518 10560257 380076 10170174 413985 -10146234 -23682 10169948 -10169947 260 -10169937 -2200619333692 -268 10169937 -1995 -10548344 390567 10169685 -10146268 -23419 -10146267 -23421 23422 10169950 -10146269 -2200619473803 2200629620034 -10169889 23659 -23684 23686 10167696 -10167696 -2200619336001 -2200629618641 -10169689 10169653 -10169655 -380647 404076 -23685 23687 -23688 390570 10550301 -10550304 -55 -380595 380647 576 23424 -104 -103 2200629505636 -10169936 -10169938 10169676 -10169669 -20 10167954 -10168201 269 -260 -2200619292982 2200619292952 -37 24411 -24188 -10145465 10145500 -10145501 -2200619326712 2200619326713 -24452 24455 -24424 -45 10167956 -10143489 -288223781545111859 -1465150451841 1465150451800 -1465150451801 1465150451802 288225246705707467 -10168231 -2200619452704 2200619452717 24456 -2200619360178 2200619335757 24416 -2200615837422 -288223046079726264 288225246695539237 -2200615812973 2200615812972 10167930 -10167956 -2200619335722 -19 2200629505701 1427 -2200629505674 2200629505675 -10169949 10169914 -2200619450122 2200619450124 -380388 105 -23 22 -24464 12517 -12514 -2200619333233 -2200618953286 380387 -10169913 -29 -2200619335743 2200618955353 -10169721 -390309 10560220 -10145470 10145469 414752 -24433 2200619450121 10169915 -10145471 10145471 414754 -404836 -106 380494 365 380491 10169843 -10169839 -380496 -380493 380492 24338 10145503 -10145505 -24446 -10169895 -2200619335741 116 10169936 117 10168097 -10168073 -58 -2200619293086 2200619293056 10169808 -10169773 -141 24192 10145755 -10169846 24095 -2200619326462 2200619326458 -24101 24102 -24065 24062 -24061 10167852 -288225246705707193 1465150582916 -1465150582916 1465150582874 -1465150582875 1465150582876 -1465150582876 -43 845593176 -845593174 -1465150631180 48303 1465996184605 -1465996184604 288225246705707469 -10168127 -2200619452808 2200619452821 24096 -2200619359922 2200619359921 24107 -288223781544980571 -1465150628433 13344 288225246695595650 -288225246695595629 -16320 288223046079765980 -288223046079780014 1465994135121 -1465994088901 23754212 -23708849 23708855 -23708851 -48485 48484 -46219 856 -3046 -293 23757552 1465972475781 -1465996233017 -98 -23757560 -2116 1465993738683 -23754376 167 1465994134199 -398488 -1465993722938 23741446 -7147 -23750118 -1465972475769 -23757618 23757618 28 -23757267 1465147934844 848298196 -1465972475754 1465124177558 -1465124177558 -23757286 -75 1465996233115 -2039 1465996161211 71678 -1465996229983 1465996158274 208 -848226698 2696537 -76 -2697112 651 848226525 206 848227203 -848227202 2697154 -2696459 -78 848298199 -848298848 804 -804 848227174 -845530064 845601740 -845601739 -1465126874014 1465126874016 -1465150631303 1465150631307 845601736 -1465972475781 1465969981490 -1465993738675 1465970379989 -1465994134365 1465993735877 -1465993736567 3348 -3024 23757236 -23755070 23754378 -23741439 23741437 -23757557 2972 -3121 23750193 1465969988639 -1465993735869 -690 1465994135055 -1465970379986 -23754212 23754209 1465969981495 -843107439 -1465150631385 1465993738824 -375 226 1465994134198 -398496 -1465126874051 1465969981489 -1465969981491 -23757333 1465150631385 -23757259 1465150631313 -1465126874053 -23755066 -3023 1465993738894 -1465993735705 -856 46222 -45516 14751 -14598 1465994134262 -1465970380076 -23708820 45516 -2756 288225246705755767 -2200619452805 2200629622615 -10145708 -10169807 -380494 380502 10169834 2200619357482 10145744 -10145744 -404590 -10169842 -24078 24078 -2200619357432 2200629503176 -2200629503622 2200619346195 -12413 10168155 -10144056 -414512 -10169810 -10167852 -2200619335826 -10169845 2200619450225 10169811 414509 10145713 -10145715 -414507 -380491 -2200619333795 2200618953302 404588 -23989 23991 -23992 364 -365 -155 23989 -24092 380498 24092 -23991 -10169738 -24097 -10169791 10169833 -10169728 10169729 -10169730 10169832 -10169832 10167993 -10168006 23995 -23958 -95 -2200619293190 2200619293160 23728 -23832 -10145977 10146013 -10146012 -23731 23730 -2200619326200 2200619326201 -23732 -23741 23742 -23701 10167703 -23742 23747 -288225246695563194 1465150713990 -1465150713990 1465150713948 -1465150713949 1465150713950 -1465150713950 1465150713991 -42 845462104 -845462102 845470658 -1465996232908 288225246705707472 -10168023 -2200619452912 2200619452925 23736 -2200619359666 2200619359664 -2200615795240 2200615795240 -288223781544849243 -1465150746140 14034 1465994121087 -1465994134264 23708863 -23708864 23757350 -23755085 -48409 23757566 -23757250 23757249 1465972475767 -1465972475784 -23741453 -15894 1465993738832 -1465969981484 1465969981476 -1465993739050 23750044 -23750193 23755066 -1465994137222 2857 23754393 -23754228 1465993735711 -7138 -1465993738757 -1465972475759 -23757628 23757625 21 1465124177644 -1465147934921 23757292 1465972475747 -848298120 -1465124177629 1465124177627 -1465147934994 3057 1465996229983 -1465996232889 177 -848226620 848226412 -845398957 -2827455 -729 848227176 -845398881 845399087 -144 -848226552 -652 805 -772 848298850 -845470590 -2827531 -727 848227200 -44 -848227176 848227202 -845399020 -1465127005080 1465150762375 -1465150762454 -2494291 -1465969981476 -23757574 2116 1465993736567 398488 -1465994137320 1465969981493 -2857 3024 23754226 -23755083 -1465969981485 -23757573 16120 -23754210 -166 -7155 -23747928 -1465993738683 -23754209 -1465969981495 1465150762457 842976367 23757348 1465969981477 -842976364 842976370 -2265 1465994137171 -23757399 16367 -1465996229993 1465993735704 -1465993721106 30767 23757308 1465970380079 -1465994135119 704 -2200619452909 -10169705 -10169703 -380606 10550336 -10146000 -404334 -23718 23718 -2200619357176 -2200619333884 2200619357625 -11430 11429 -414256 10558569 -10168054 10169706 -1958 -2200629503678 -10146001 -10169741 10169705 10168312 -10169706 10169707 23839 -23840 23837 23732 -404332 -23737 -10169740 -10169833 10169728 -91 -10168110 23843 -23806 24100 -23995 -10145746 -24100 -24102 10167807 -10143750 -288223781544980569 -1465150631315 -1465996233127 -364 17452 8310 -25311 44770 -43913 1465994134186 -1465994137094 46820 1465150584393 -1465150584391 1465993758337 -1465993758337 207 2058 43913 -46806 -36 1465996161249 71674 -71690 71690 -71345 66384 -845596770 845530058 -845530057 843173987 2427744 -48272 48280 1465150582933 -1465150582933 -48287 48287 1465150582890 -1465150631308 1465150631311 845601729 -845601730 -1465150614308 31409 1465996186080 1465994135043 2908 43912 -1465150584353 1465150584354 843173983 -1465993756885 1465993756886 -1465993805158 -1465150582889 -48291 1465996224358 -1465996176066 1465996184620 -1465996184620 1465150582932 288223781555124552 24088 2200619359916 -24055 24056 -2200615844560 -288223046079718887 288223046079718887 2200615820471 10167826 -2200619335830 2443 -2200619333383 2200619333385 -2200619450228 2200619069736 380496 380490 2200619335849 10169617 -390413 -10560219 11531114 -11531115 970890 -10145760 -414497 -10145724 -414499 390411 -14 10169810 2200629620036 -10169811 -10145726 10145726 -414496 -2200618943383 2200629503605 380493 380649 23929 -24085 -157 380654 23926 10145725 168 169 -147 2200619293242 23394 -23431 -10146258 -23432 23389 48306 -2200629620935 2200619452964 13 -2200615836660 2200615837427 -768 2200615812998 -2200615837427 2200615812997 2200619335752 10168251 -2200629503990 10169934 2200619335723 -116843 23410 -2200619356926 2200619333510 -280 -2200619333676 2200619333681 12514 10548647 -10168260 380394 10169943 -2200618953304 -2200619335744 -261 10169739 -10170228 -2200619333690 2200619333950 -2200619450391 2200619450131 -380399 10169946 -2200629503638 -390310 -10144276 -23422 -10146265 -23683 10146228 236 -2200619450120 2200619473807 -10169912 -521 -23476 23478 -23426 -23996 380389 468 261 -10169945 380388 -10146262 -23429 10169655 -10169635 -223 10168168 -2200629461150 2200619292936 306 -290 10145501 -10145500 2200619302262 24451 -24461 24462 10167911 -10143494 -288223781545111860 -1465150500105 845724248 -845724246 -1465150451802 -288223780709522865 288221580079901930 2200619452704 24454 -2200619360175 2200619360178 -24466 -288223781545087433 -1465150483995 1465150484017 -1465150500316 2955 288223046079772512 -288221580085637391 -13177 23708872 -23708874 23757374 -23755109 1465996233333 -1465972475758 23757233 -23741464 1465993722938 -1465969981501 -7163 1465969981467 -23757182 -1465993735877 -2491 -843238511 843238519 1465150500313 -1465150500215 23757259 -23757283 13629 43 1465972475738 -1465996229994 23747072 -1465969981414 1465969981405 -1465969981467 -23757357 23757182 -1465993735710 1465993735702 1465993735703 -1465993738726 -23741462 -23750419 23754402 1465970379963 -23755092 23755093 -23757358 -857 1465993735705 -1465969981470 1465969981468 -1465126742955 1465150500241 -1465150500312 -1465996233183 3037 13330 14598 23708823 -1465994088899 -2200619452701 2200619452702 34 -10169911 -380398 -10145488 -404846 24467 -24438 -2200619333256 -446 2200619333698 24438 10143801 -10155742 11942 10145487 24458 10145453 -10169914 -390307 10558263 10144062 1428 10169913 390309 10169917 -208 -2200619333691 24453 -404844 414765 -24453 10145457 -10145456 10145488 -288223781545111897 -1465150500694 451 -31410 1465996216039 17088 -1465994134186 -2908 1465150453321 -1465150453319 1465993758338 -1465993758338 -2914 46827 345 71345 -4961 -845727843 845661131 -845661129 845732804 -2427743 -1465993756886 1465150451861 -1465150451861 1465150451818 -1465150500236 1465150500239 845732801 -845732803 -1465150483237 -1465150453281 -2058 2914 1465150453282 843305056 1465993756887 -1465993805159 1465150451817 44 -1465996184621 1465150451859 288223781555255624 24448 2200619360172 -24415 -2200615844816 2200615844817 288225246695539254 -2200615820367 2200615844565 -2200615844565 2200615820366 -114400 2200629501937 -10168239 24422 -11925 -12517 -380394 10550299 2200619335745 10169721 32 -32 970888 
Potential of Offsets elements: 28.2897 435.29 2215.11 474.29 28.2897 1563.29 28.2897 28.2897 28.2897 28.2897 38.2897 33.2897 28.2897 28.2897 28.2897 28.2897 28.2897 28.2897 28.2897 28.2897 28.2897 28.2897 28.2897 28.2897 87.2897 28.2897 179.29 28.2897 32.2897 98.2897 34.2897 29.2897 28.2897 404.29 28.2897 44.2897 1266.29 54.2897 31.2897 28.2897 28.2897 28.2897 28.2897 28.2897 28.2897 184.29 28.2897 28.2897 133.29 1172.29 28.2897 28.2897 28.2897 28.2897 169.29 213.29 28.2897 28.2897 496.29 28.2897 28.2897 343.29 28.2897 28.2897 28.2897 28.2897 28.2897 524.29 28.2897 28.2897 28.2897 28.2897 28.2897 28.2897 72.2897 28.2897 28.2897 28.2897 28.2897 133.29 28.2897 28.2897 28.2897 28.2897 28.2897 28.2897 28.2897 28.2897 28.2897 28.2897 28.2897 28.2897 28.2897 28.2897 28.2897 28.2897 28.2897 28.2897 28.2897 28.2897 28.2897 73.2897 28.2897 270.29 28.2897 28.2897 28.2897 28.2897 28.2897 28.2897 28.2897 28.2897 28.2897 28.2897 172.29 28.2897 28.2897 28.2897 28.2897 28.2897 28.2897 28.2897 28.2897 28.2897 28.2897 28.2897 28.2897 28.2897 58.2897 28.2897 28.2897 28.2897 164.29 80.2897 28.2897 28.2897 28.2897 28.2897 28.2897 28.2897 28.2897 28.2897 28.2897 28.2897 28.2897 28.2897 28.2897 28.2897 112.29 28.2897 28.2897 28.2897 28.2897 189.29 901.29 28.2897 28.2897 28.2897 28.2897 44.2897 28.2897 28.2897 28.2897 28.2897 215.29 28.2897 28.2897 28.2897 149.29 28.2897 28.2897 28.2897 28.2897 93.2897 28.2897 28.2897 28.2897 28.2897 28.2897 28.2897 28.2897 28.2897 28.2897 28.2897 28.2897 28.2897 28.2897 28.2897 28.2897 28.2897 28.2897 28.2897 28.2897 142.29 28.2897 28.2897 28.2897 28.2897 28.2897 28.2897 28.2897 162.29 28.2897 28.2897 270.29 30.2897 31.2897 48.2897 37.2897 28.2897 30.2897 28.2897 28.2897 28.2897 28.2897 30.2897 53.2897 100.29 54.2897 28.2897 40.2897 33.2897 262.29 28.2897 28.2897 28.2897 28.2897 28.2897 28.2897 28.2897 28.2897 28.2897 28.2897 28.2897 93.2897 28.2897 28.2897 28.2897 28.2897 28.2897 28.2897 28.2897 28.2897 28.2897 28.2897 28.2897 318.29 28.2897 28.2897 28.2897 134.29 28.2897 28.2897 28.2897 78.2897 28.2897 28.2897 28.2897 28.2897 28.2897 228.29 28.2897 28.2897 28.2897 28.2897 28.2897 192.29 28.2897 28.2897 28.2897 28.2897 28.2897 28.2897 28.2897 28.2897 28.2897 28.2897 28.2897 28.2897 28.2897 28.2897 28.2897 28.2897 158.29 28.2897 28.2897 28.2897 28.2897 259.29 28.2897 217.29 28.2897 632.29 28.2897 28.2897 28.2897 28.2897 28.2897 28.2897 28.2897 28.2897 28.2897 28.2897 28.2897 28.2897 28.2897 28.2897 28.2897 28.2897 28.2897 28.2897 28.2897 28.2897 28.2897 28.2897 28.2897 28.2897 28.2897 28.2897 28.2897 28.2897 28.2897 28.2897 28.2897 28.2897 28.2897 28.2897 28.2897 28.2897 28.2897 28.2897 28.2897 1120.53 28.2897 28.2897 28.2897 28.2897 28.2897 28.2897 28.2897 28.2897 28.2897 28.2897 1271.29 28.2897 28.2897 28.2897 28.2897 28.2897 28.2897 59.2897 28.2897 28.2897 28.2897 28.2897 28.2897 28.2897 28.2897 28.2897 28.2897 31.2897 52.2897 70.2897 42.2897 49.2897 28.2897 28.2897 28.2897 28.2897 28.2897 32.2897 28.2897 28.2897 28.2897 31.2897 44.2897 28.2897 28.2897 28.2897 28.2897 98.2897 28.2897 28.2897 28.2897 28.2897 28.2897 28.2897 28.2897 28.2897 31.2897 28.2897 28.2897 28.2897 28.2897 28.2897 28.2897 28.2897 28.2897 36.2897 28.2897 28.2897 28.2897 28.2897 28.2897 28.2897 28.2897 41.2897 28.2897 28.2897 28.2897 28.2897 28.2897 28.2897 28.2897 28.2897 28.2897 28.2897 28.2897 28.2897 28.2897 28.2897 28.2897 127.29 28.2897 28.2897 28.2897 313.29 28.2897 28.2897 65.2897 28.2897 28.2897 405.29 28.2897 28.2897 28.2897 28.2897 74.2897 812.29 28.2897 28.2897 229.29 40.2897 28.2897 28.2897 28.2897 28.2897 28.2897 28.2897 28.2897 28.2897 28.2897 28.2897 157.29 299.29 28.2897 28.2897 28.2897 28.2897 28.2897 28.2897 90.2897 40.2897 28.2897 28.2897 28.2897 28.2897 28.2897 28.2897 28.2897 28.2897 28.2897 28.2897 28.2897 28.2897 28.2897 110.29 28.2897 28.2897 28.2897 28.2897 28.2897 36.2897 46.2897 28.2897 28.2897 28.2897 28.2897 36.2897 28.2897 28.2897 28.2897 28.2897 28.2897 28.2897 28.2897 28.2897 28.2897 28.2897 28.2897 28.2897 28.2897 28.2897 28.2897 28.2897 41.2897 28.2897 28.2897 28.2897 28.2897 28.2897 28.2897 109.29 28.2897 28.2897 28.2897 28.2897 28.2897 28.2897 28.2897 28.2897 28.2897 28.2897 31.2897 28.2897 28.2897 28.2897 28.2897 28.2897 38.2897 33.2897 28.2897 1021.29 28.2897 28.2897 28.2897 28.2897 28.2897 28.2897 28.2897 38.2897 28.2897 28.2897 28.2897 28.2897 294.29 133.29 93.2897 106.29 378.29 28.2897 28.2897 208.29 28.2897 28.2897 28.2897 28.2897 28.2897 28.2897 561.29 49.2897 28.2897 28.2897 28.2897 28.2897 392.29 397.29 324.29 28.2897 28.2897 28.2897 28.2897 28.2897 28.2897 28.2897 1148.29 28.2897 28.2897 28.2897 28.2897 28.2897 28.2897 28.2897 28.2897 28.2897 28.2897 28.2897 28.2897 28.2897 28.2897 28.2897 28.2897 28.2897 28.2897 28.2897 28.2897 28.2897 28.2897 28.2897 28.2897 28.2897 28.2897 342.29 287.29 28.2897 28.2897 28.2897 28.2897 28.2897 28.2897 28.2897 37.2897 46.2897 28.2897 28.2897 28.2897 28.2897 347.29 28.2897 28.2897 28.2897 28.2897 28.2897 28.2897 28.2897 28.2897 28.2897 28.2897 28.2897 28.2897 28.2897 28.2897 28.2897 28.2897 202.29 28.2897 28.2897 28.2897 28.2897 28.2897 28.2897 28.2897 28.2897 28.2897 28.2897 28.2897 28.2897 28.2897 28.2897 28.2897 28.2897 28.2897 28.2897 28.2897 28.2897 28.2897 28.2897 28.2897 28.2897 28.2897 384.29 29.2897 28.2897 28.2897 28.2897 28.2897 28.2897 28.2897 28.2897 28.2897 28.2897 28.2897 28.2897 28.2897 28.2897 28.2897 28.2897 28.2897 28.2897 28.2897 28.2897 28.2897 28.2897 28.2897 149.29 28.2897 28.2897 28.2897 28.2897 28.2897 828.29 97.2897 28.2897 789.29 28.2897 28.2897 28.2897 28.2897 28.2897 28.2897 28.2897 468.29 28.2897 28.2897 78.2897 28.2897 28.2897 28.2897 31.2897 99.2897 28.2897 28.2897 28.2897 178.29 28.2897 28.2897 28.2897 28.2897 28.2897 262.29 28.2897 28.2897 28.2897 28.2897 28.2897 28.2897 28.2897 28.2897 28.2897 28.2897 28.2897 28.2897 28.2897 28.2897 28.2897 2115.29 28.2897 28.2897 28.2897 28.2897 28.2897 28.2897 28.2897 28.2897 28.2897 28.2897 28.2897 1384.29 1183.29 875.29 28.2897 927.29 28.2897 28.2897 28.2897 28.2897 28.2897 28.2897 28.2897 28.2897 28.2897 28.2897 28.2897 28.2897 28.2897 28.2897 35.2897 28.2897 28.2897 160.29 28.2897 28.2897 28.2897 28.2897 28.2897 28.2897 28.2897 28.2897 28.2897 28.2897 28.2897 28.2897 28.2897 28.2897 28.2897 28.2897 28.2897 28.2897 28.2897 28.2897 28.2897 28.2897 28.2897 28.2897 28.2897 28.2897 39.2897 28.2897 28.2897 28.2897 28.2897 28.2897 28.2897 28.2897 28.2897 28.2897 28.2897 28.2897 28.2897 28.2897 28.2897 90.2897 28.2897 28.2897 28.2897 28.2897 80.2897 38.2897 28.2897 28.2897 28.2897 28.2897 28.2897 28.2897 28.2897 28.2897 28.2897 28.2897 28.2897 28.2897 28.2897 28.2897 28.2897 28.2897 28.2897 28.2897 28.2897 28.2897 28.2897 28.2897 28.2897 28.2897 28.2897 28.2897 28.2897 28.2897 28.2897 28.2897 28.2897 28.2897 28.2897 28.2897 28.2897 28.2897 28.2897 28.2897 28.2897 28.2897 28.2897 28.2897 28.2897 28.2897 28.2897 28.2897 28.2897 28.2897 28.2897 28.2897 28.2897 28.2897 28.2897 28.2897 28.2897 28.2897 28.2897 28.2897 28.2897 28.2897 28.2897 28.2897 28.2897 29.2897 100.29 28.2897 28.2897 28.2897 28.2897 28.2897 28.2897 28.2897 28.2897 28.2897 28.2897 28.2897 28.2897 28.2897 28.2897 34.2897 28.2897 28.2897 33.2897 28.2897 28.2897 28.2897 28.2897 28.2897 28.2897 28.2897 28.2897 28.2897 28.2897 28.2897 28.2897 28.2897 28.2897 28.2897 28.2897 28.2897 28.2897 28.2897 28.2897 28.2897 28.2897 28.2897 28.2897 28.2897 28.2897 28.2897 28.2897 28.2897 28.2897 28.2897 28.2897 28.2897 258.29 28.2897 28.2897 28.2897 28.2897 37.2897 46.2897 56.2897 28.2897 28.2897 28.2897 28.2897 434.29 28.2897 28.2897 29.2897 28.2897 28.2897 28.2897 66.2897 28.2897 28.2897 28.2897 28.2897 28.2897 28.2897 28.2897 28.2897 28.2897 28.2897 1416.29 28.2897 28.2897 28.2897 28.2897 28.2897 28.2897 28.2897 28.2897 28.2897 28.2897 28.2897 28.2897 28.2897 28.2897 40.2897 28.2897 28.2897 28.2897 28.2897 28.2897 28.2897 28.2897 28.2897 162.29 28.2897 28.2897 28.2897 28.2897 28.2897 28.2897 28.2897 28.2897 28.2897 405.29 920.29 733.29 28.2897 28.2897 28.2897 28.2897 28.2897 28.2897 28.2897 946.29 28.2897 28.2897 28.2897 28.2897 28.2897 28.2897 28.2897 28.2897 28.2897 28.2897 28.2897 28.2897 28.2897 28.2897 28.2897 28.2897 28.2897 28.2897 28.2897 28.2897 28.2897 28.2897 28.2897 28.2897 28.2897 28.2897 28.2897 28.2897 28.2897 28.2897 42.2897 28.2897 58.2897 28.2897 28.2897 48.2897 28.2897 28.2897 28.2897 28.2897 81.2897 28.2897 28.2897 28.2897 28.2897 28.2897 28.2897 28.2897 28.2897 28.2897 28.2897 28.2897 28.2897 28.2897 28.2897 28.2897 28.2897 28.2897 28.2897 28.2897 1036.29 28.2897 28.2897 28.2897 28.2897 28.2897 28.2897 28.2897 28.2897 28.2897 28.2897 28.2897 28.2897 28.2897 28.2897 28.2897 28.2897 28.2897 28.2897 28.2897 28.2897 28.2897 28.2897 28.2897 28.2897 28.2897 28.2897 28.2897 28.2897 28.2897 28.2897 28.2897 28.2897 28.2897 28.2897 28.2897 28.2897 28.2897 36.2897 28.2897 28.2897 28.2897 28.2897 65.2897 28.2897 28.2897 32.2897 28.2897 28.2897 51.2897 28.2897 32.2897 28.2897 114.29 28.2897 28.2897 28.2897 28.2897 28.2897 28.2897 28.2897 70.2897 28.2897 30.2897 31.2897 104.29 28.2897 28.2897 34.2897 28.2897 28.2897 53.2897 28.2897 28.2897 28.2897 124.29 28.2897 28.2897 28.2897 28.2897 34.2897 28.2897 28.2897 28.2897 28.2897 28.2897 28.2897 28.2897 28.2897 28.2897 28.2897 28.2897 28.2897 28.2897 28.2897 28.2897 29.2897 28.2897 28.2897 28.2897 28.2897 28.2897 28.2897 28.2897 28.2897 28.2897 28.2897 28.2897 28.2897 31.2897 56.2897 73.2897 28.2897 28.2897 40.2897 28.2897 28.2897 28.2897 28.2897 28.2897 28.2897 28.2897 28.2897 28.2897 35.2897 28.2897 28.2897 28.2897 28.2897 28.2897 28.2897 28.2897 28.2897 28.2897 28.2897 28.2897 43.2897 28.2897 28.2897 42.2897 39.2897 28.2897 28.2897 28.2897 28.2897 28.2897 28.2897 28.2897 28.2897 28.2897 28.2897 28.2897 28.2897 28.2897 28.2897 28.2897 28.2897 28.2897 28.2897 28.2897 28.2897 28.2897 28.2897 28.2897 28.2897 28.2897 28.2897 28.2897 28.2897 28.2897 28.2897 28.2897 28.2897 28.2897 28.2897 28.2897 28.2897 28.2897 28.2897 28.2897 28.2897 28.2897 28.2897 28.2897 28.2897 28.2897 28.2897 28.2897 28.2897 28.2897 28.2897 28.2897 28.2897 28.2897 28.2897 28.2897 28.2897 28.2897 28.2897 28.2897 28.2897 28.2897 28.2897 28.2897 28.2897 28.2897 28.2897 28.2897 28.2897 28.2897 39.2897 28.2897 28.2897 28.2897 28.2897 28.2897 28.2897 28.2897 28.2897 28.2897 28.2897 28.2897 28.2897 28.2897 28.2897 28.2897 28.2897 28.2897 28.2897 28.2897 28.2897 28.2897 28.2897 28.2897 28.2897 28.2897 28.2897 105.29 28.2897 28.2897 28.2897 90.2897 28.2897 28.2897 28.2897 28.2897 28.2897 28.2897 28.2897 28.2897 28.2897 28.2897 28.2897 28.2897 28.2897 28.2897 28.2897 28.2897 28.2897 28.2897 28.2897 28.2897 28.2897 28.2897 28.2897 28.2897 28.2897 28.2897 28.2897 28.2897 28.2897 28.2897 28.2897 28.2897 28.2897 28.2897 28.2897 28.2897 28.2897 28.2897 28.2897 28.2897 28.2897 28.2897 28.2897 318.29 28.2897 28.2897 28.2897 28.2897 28.2897 28.2897 28.2897 28.2897 28.2897 28.2897 28.2897 28.2897 28.2897 28.2897 28.2897 28.2897 28.2897 28.2897 28.2897 28.2897 96.2897 28.2897 28.2897 28.2897 28.2897 28.2897 28.2897 28.2897 28.2897 28.2897 50.2897 28.2897 28.2897 28.2897 28.2897 28.2897 28.2897 28.2897 28.2897 28.2897 28.2897 28.2897 28.2897 28.2897 28.2897 28.2897 28.2897 28.2897 28.2897 28.2897 28.2897 28.2897 28.2897 43.2897 28.2897 28.2897 28.2897 28.2897 28.2897 28.2897 28.2897 28.2897 28.2897 28.2897 28.2897 128.29 28.2897 28.2897 28.2897 28.2897 28.2897 32.2897 28.2897 28.2897 29.2897 28.2897 28.2897 28.2897 415.29 315.29 38.2897 256.29 107.29 86.2897 31.2897 85.2897 28.2897 43.2897 28.2897 28.2897 28.2897 28.2897 28.2897 28.2897 28.2897 28.2897 28.2897 28.2897 28.2897 28.2897 28.2897 28.2897 28.2897 28.2897 28.2897 28.2897 28.2897 28.2897 28.2897 28.2897 28.2897 88.2897 31.2897 28.2897 28.2897 28.2897 28.2897 28.2897 28.2897 28.2897 28.2897 28.2897 28.2897 28.2897 28.2897 28.2897 34.2897 28.2897 28.2897 28.2897 28.2897 28.2897 28.2897 28.2897 28.2897 28.2897 28.2897 28.2897 28.2897 28.2897 28.2897 28.2897 28.2897 88.2897 30.2897 28.2897 28.2897 58.2897 28.2897 28.2897 28.2897 28.2897 28.2897 28.2897 28.2897 28.2897 28.2897 28.2897 28.2897 28.2897 28.2897 28.2897 28.2897 28.2897 28.2897 28.2897 28.2897 28.2897 28.2897 28.2897 28.2897 28.2897 28.2897 28.2897 28.2897 28.2897 28.2897 28.2897 28.2897 28.2897 28.2897 28.2897 28.2897 28.2897 28.2897 28.2897 28.2897 28.2897 28.2897 28.2897 28.2897 28.2897 28.2897 28.2897 28.2897 28.2897 28.2897 28.2897 28.2897 28.2897 28.2897 28.2897 28.2897 28.2897 28.2897 28.2897 50.2897 34.2897 48.2897 51.2897 28.2897 28.2897 28.2897 28.2897 28.2897 124.29 28.2897 61.2897 28.2897 28.2897 28.2897 28.2897 28.2897 28.2897 28.2897 28.2897 28.2897 28.2897 102.29 28.2897 28.2897 28.2897 71.2897 64.2897 105.29 28.2897 28.2897 28.2897 28.2897 28.2897 28.2897 28.2897 28.2897 28.2897 235.29 28.2897 28.2897 28.2897 28.2897 28.2897 28.2897 28.2897 28.2897 28.2897 28.2897 28.2897 28.2897 28.2897 28.2897 28.2897 28.2897 28.2897 28.2897 28.2897 28.2897 28.2897 28.2897 28.2897 28.2897 28.2897 28.2897 28.2897 28.2897 28.2897 28.2897 28.2897 28.2897 28.2897 28.2897 28.2897 28.2897 28.2897 28.2897 28.2897 28.2897 28.2897 58.2897 28.2897 28.2897 28.2897 32.2897 28.2897 28.2897 28.2897 28.2897 28.2897 28.2897 31.2897 28.2897 28.2897 28.2897 28.2897 405.29 41.2897 28.2897 28.2897 29.2897 28.2897 31.2897 30.2897 28.2897 28.2897 28.2897 28.2897 28.2897 28.2897 28.2897 28.2897 28.2897 28.2897 28.2897 28.2897 28.2897 28.2897 28.2897 28.2897 28.2897 28.2897 28.2897 28.2897 28.2897 28.2897 28.2897 28.2897 28.2897 28.2897 28.2897 28.2897 28.2897 28.2897 28.2897 28.2897 54.2897 28.2897 28.2897 28.2897 28.2897 28.2897 28.2897 28.2897 28.2897 28.2897 31.2897 28.2897 28.2897 28.2897 28.2897 28.2897 28.2897 28.2897 95.2897 28.2897 32.2897 43.2897 28.2897 28.2897 28.2897 28.2897 28.2897 28.2897 28.2897 28.2897 28.2897 28.2897 28.2897 48.2897 28.2897 28.2897 28.2897 28.2897 28.2897 28.2897 28.2897 28.2897 28.2897 28.2897 28.2897 28.2897 57.2897 28.2897 28.2897 28.2897 28.2897 28.2897 28.2897 164.29 28.2897 28.2897 28.2897 28.2897 28.2897 28.2897 28.2897 32.2897 28.2897 28.2897 28.2897 28.2897 28.2897 28.2897 28.2897 28.2897 28.2897 28.2897 28.2897 28.2897 28.2897 28.2897 28.2897 28.2897 34.2897 28.2897 28.2897 28.2897 28.2897 28.2897 28.2897 28.2897 28.2897 28.2897 28.2897 28.2897 28.2897 28.2897 28.2897 29.2897 44.2897 28.2897 28.2897 28.2897 28.2897 28.2897 28.2897 29.2897 28.2897 28.2897 28.2897 28.2897 28.2897 28.2897 28.2897 28.2897 28.2897 28.2897 28.2897 28.2897 28.2897 28.2897 28.2897 28.2897 28.2897 28.2897 28.2897 28.2897 28.2897 28.2897 28.2897 28.2897 43.2897 28.2897 28.2897 28.2897 28.2897 28.2897 28.2897 28.2897 28.2897 28.2897 28.2897 28.2897 28.2897 28.2897 28.2897 28.2897 28.2897 28.2897 28.2897 28.2897 28.2897 116.29 28.2897 28.2897 67.2897 90.2897 28.2897 
rewards of Offsets elements: 0 407 2215 446 0 1535 0 0 0 0 10 5 0 0 0 0 0 0 0 0 0 0 0 0 59 0 151 0 4 70 6 1 0 376 0 16 1238 26 3 0 0 0 0 0 0 156 0 0 105 1144 0 0 0 0 141 185 0 0 468 0 0 315 0 0 0 0 0 496 0 0 0 0 0 0 44 0 0 0 0 105 0 0 0 0 0 0 0 0 0 0 0 0 0 0 0 0 0 0 0 0 0 45 0 242 0 0 0 0 0 0 0 0 0 0 144 0 0 0 0 0 0 0 0 0 0 0 0 0 30 0 0 0 136 52 0 0 0 0 0 0 0 0 0 0 0 0 0 0 84 0 0 0 0 161 873 0 0 0 0 16 0 0 0 0 187 0 0 0 121 0 0 0 0 65 0 0 0 0 0 0 0 0 0 0 0 0 0 0 0 0 0 0 0 114 0 0 0 0 0 0 0 134 0 0 242 2 3 20 9 0 2 0 0 0 0 2 25 72 26 0 12 5 234 0 0 0 0 0 0 0 0 0 0 0 65 0 0 0 0 0 0 0 0 0 0 0 290 0 0 0 106 0 0 0 50 0 0 0 0 0 200 0 0 0 0 0 164 0 0 0 0 0 0 0 0 0 0 0 0 0 0 0 0 130 0 0 0 0 231 0 189 0 604 0 0 0 0 0 0 0 0 0 0 0 0 0 0 0 0 0 0 0 0 0 0 0 0 0 0 0 0 0 0 0 0 0 0 0 0 0 0 0 1112 0 0 0 0 0 0 0 0 0 0 1243 0 0 0 0 0 0 31 0 0 0 0 0 0 0 0 0 3 24 42 14 21 0 0 0 0 0 4 0 0 0 3 16 0 0 0 0 70 0 0 0 0 0 0 0 0 3 0 0 0 0 0 0 0 0 8 0 0 0 0 0 0 0 13 0 0 0 0 0 0 0 0 0 0 0 0 0 0 0 99 0 0 0 285 0 0 37 0 0 377 0 0 0 0 46 784 0 0 201 12 0 0 0 0 0 0 0 0 0 0 129 271 0 0 0 0 0 0 62 12 0 0 0 0 0 0 0 0 0 0 0 0 0 82 0 0 0 0 0 8 18 0 0 0 0 8 0 0 0 0 0 0 0 0 0 0 0 0 0 0 0 0 13 0 0 0 0 0 0 81 0 0 0 0 0 0 0 0 0 0 3 0 0 0 0 0 10 5 0 993 0 0 0 0 0 0 0 10 0 0 0 0 266 105 65 78 350 0 0 180 0 0 0 0 0 0 533 21 0 0 0 0 364 369 296 0 0 0 0 0 0 0 1120 0 0 0 0 0 0 0 0 0 0 0 0 0 0 0 0 0 0 0 0 0 0 0 0 0 0 314 259 0 0 0 0 0 0 0 9 18 0 0 0 0 319 0 0 0 0 0 0 0 0 0 0 0 0 0 0 0 0 174 0 0 0 0 0 0 0 0 0 0 0 0 0 0 0 0 0 0 0 0 0 0 0 0 0 356 1 0 0 0 0 0 0 0 0 0 0 0 0 0 0 0 0 0 0 0 0 0 0 121 0 0 0 0 0 800 69 0 761 0 0 0 0 0 0 0 440 0 0 50 0 0 0 3 71 0 0 0 150 0 0 0 0 0 234 0 0 0 0 0 0 0 0 0 0 0 0 0 0 0 2087 0 0 0 0 0 0 0 0 0 0 0 1356 1155 847 0 899 0 0 0 0 0 0 0 0 0 0 0 0 0 0 7 0 0 132 0 0 0 0 0 0 0 0 0 0 0 0 0 0 0 0 0 0 0 0 0 0 0 0 0 0 11 0 0 0 0 0 0 0 0 0 0 0 0 0 0 62 0 0 0 0 52 10 0 0 0 0 0 0 0 0 0 0 0 0 0 0 0 0 0 0 0 0 0 0 0 0 0 0 0 0 0 0 0 0 0 0 0 0 0 0 0 0 0 0 0 0 0 0 0 0 0 0 0 0 0 0 0 0 0 0 0 0 0 0 0 1 72 0 0 0 0 0 0 0 0 0 0 0 0 0 0 6 0 0 5 0 0 0 0 0 0 0 0 0 0 0 0 0 0 0 0 0 0 0 0 0 0 0 0 0 0 0 0 0 0 0 0 0 230 0 0 0 0 9 18 28 0 0 0 0 406 0 0 1 0 0 0 38 0 0 0 0 0 0 0 0 0 0 1388 0 0 0 0 0 0 0 0 0 0 0 0 0 0 12 0 0 0 0 0 0 0 0 134 0 0 0 0 0 0 0 0 0 377 892 705 0 0 0 0 0 0 0 918 0 0 0 0 0 0 0 0 0 0 0 0 0 0 0 0 0 0 0 0 0 0 0 0 0 0 0 0 0 0 14 0 30 0 0 20 0 0 0 0 53 0 0 0 0 0 0 0 0 0 0 0 0 0 0 0 0 0 0 0 1008 0 0 0 0 0 0 0 0 0 0 0 0 0 0 0 0 0 0 0 0 0 0 0 0 0 0 0 0 0 0 0 0 0 0 0 0 0 8 0 0 0 0 37 0 0 4 0 0 23 0 4 0 86 0 0 0 0 0 0 0 42 0 2 3 76 0 0 6 0 0 25 0 0 0 96 0 0 0 0 6 0 0 0 0 0 0 0 0 0 0 0 0 0 0 0 1 0 0 0 0 0 0 0 0 0 0 0 0 3 28 45 0 0 12 0 0 0 0 0 0 0 0 0 7 0 0 0 0 0 0 0 0 0 0 0 15 0 0 14 11 0 0 0 0 0 0 0 0 0 0 0 0 0 0 0 0 0 0 0 0 0 0 0 0 0 0 0 0 0 0 0 0 0 0 0 0 0 0 0 0 0 0 0 0 0 0 0 0 0 0 0 0 0 0 0 0 0 0 0 0 0 0 0 0 0 0 0 0 0 11 0 0 0 0 0 0 0 0 0 0 0 0 0 0 0 0 0 0 0 0 0 0 0 0 0 0 77 0 0 0 62 0 0 0 0 0 0 0 0 0 0 0 0 0 0 0 0 0 0 0 0 0 0 0 0 0 0 0 0 0 0 0 0 0 0 0 0 0 0 0 0 0 0 0 290 0 0 0 0 0 0 0 0 0 0 0 0 0 0 0 0 0 0 0 0 68 0 0 0 0 0 0 0 0 0 22 0 0 0 0 0 0 0 0 0 0 0 0 0 0 0 0 0 0 0 0 0 0 15 0 0 0 0 0 0 0 0 0 0 0 100 0 0 0 0 0 4 0 0 1 0 0 0 387 287 10 228 79 58 3 57 0 15 0 0 0 0 0 0 0 0 0 0 0 0 0 0 0 0 0 0 0 0 0 0 0 60 3 0 0 0 0 0 0 0 0 0 0 0 0 0 6 0 0 0 0 0 0 0 0 0 0 0 0 0 0 0 0 60 2 0 0 30 0 0 0 0 0 0 0 0 0 0 0 0 0 0 0 0 0 0 0 0 0 0 0 0 0 0 0 0 0 0 0 0 0 0 0 0 0 0 0 0 0 0 0 0 0 0 0 0 0 0 0 0 0 0 0 0 0 0 22 6 20 23 0 0 0 0 0 96 0 33 0 0 0 0 0 0 0 0 0 0 74 0 0 0 43 36 77 0 0 0 0 0 0 0 0 0 207 0 0 0 0 0 0 0 0 0 0 0 0 0 0 0 0 0 0 0 0 0 0 0 0 0 0 0 0 0 0 0 0 0 0 0 0 0 0 0 0 0 30 0 0 0 4 0 0 0 0 0 0 3 0 0 0 0 377 13 0 0 1 0 3 2 0 0 0 0 0 0 0 0 0 0 0 0 0 0 0 0 0 0 0 0 0 0 0 0 0 0 0 0 0 0 0 0 26 0 0 0 0 0 0 0 0 0 3 0 0 0 0 0 0 0 67 0 4 15 0 0 0 0 0 0 0 0 0 0 0 20 0 0 0 0 0 0 0 0 0 0 0 0 29 0 0 0 0 0 0 136 0 0 0 0 0 0 0 4 0 0 0 0 0 0 0 0 0 0 0 0 0 0 0 0 6 0 0 0 0 0 0 0 0 0 0 0 0 0 0 1 16 0 0 0 0 0 0 1 0 0 0 0 0 0 0 0 0 0 0 0 0 0 0 0 0 0 0 0 0 0 0 0 15 0 0 0 0 0 0 0 0 0 0 0 0 0 0 0 0 0 0 0 0 88 0 0 39 62 0 Printing Sanity3
offset_index value1850
offset list size1850
reward size1850
potential size1850
-----------------------------------------------------------------------------------------------------------------------------------------------------------------------------------------------------

DRAM Statistics
 CHANNEL 0
 RQ ROW_BUFFER_HIT:      46309  ROW_BUFFER_MISS:     189843
 DBUS_CONGESTED:        104
 WQ ROW_BUFFER_HIT:      19072  ROW_BUFFER_MISS:     124864  FULL:          0

 AVG_CONGESTED_CYCLE: 4
 All warmup complete: 2
Channel 0 Bank busy for read cycles: 0
Channel 0 Bank busy for write cycles: 0
Channel 0
Rank 0
0banks busy for read cycles: 546326175
0banks busy for write cycles: 61090
1banks busy for read cycles: 11778009
1banks busy for write cycles: 7572644
2banks busy for read cycles: 5255087
2banks busy for write cycles: 2886489
3banks busy for read cycles: 986080
3banks busy for write cycles: 1083715
4banks busy for read cycles: 286596
4banks busy for write cycles: 457884
5banks busy for read cycles: 77990
5banks busy for write cycles: 230176
6banks busy for read cycles: 70670
6banks busy for write cycles: 128852
7banks busy for read cycles: 93639
7banks busy for write cycles: 124755
8banks busy for read cycles: 377445
8banks busy for write cycles: 595121

CPU 0 Branch Prediction Accuracy: 99.6871% MPKI: 0.60392 Average ROB Occupancy at Mispredict: 13.3984
Branch types
NOT_BRANCH: 161399032 80.6995%
BRANCH_DIRECT_JUMP: 1794172 0.897086%
BRANCH_INDIRECT: 10896773 5.44839%
BRANCH_CONDITIONAL: 17825944 8.91297%
BRANCH_DIRECT_CALL: 3261049 1.63052%
BRANCH_INDIRECT_CALL: 780950 0.390475%
BRANCH_RETURN: 4042055 2.02103%
BRANCH_OTHER: 0 0%

DRAM PAGES: 1048576
Allocated PAGES: 4418
