
*** ChampSim Multicore Out-of-Order Simulator ***

Warmup Instructions: 50000000
Simulation Instructions: 200000000
Number of CPUs: 1
LLC sets: 2048
LLC ways: 16
Off-chip DRAM Size: 4096 MB Channels: 1 Width: 64-bit Data Rate: 6400 MT/s
CPU 0 runs traces/spec2k17/srv_42.champsimtrace.xz
.xz
BTB has LRU replacement policy
ITLB has LRU replacement policy
DTLB has LRU replacement policy
STLB has LRU replacement policy
L1I has LRU replacement policy
L1D has LRU replacement policy
Initialize SRRIP state for L2C
Initialize DRRIP state for LLC
Offsets elements: 
Potential of Offsets elements: 
rewards of Offsets elements: 
Printing Sanity1
offset list size1949
Offsets elements: 
Potential of Offsets elements: 
rewards of Offsets elements: 0 647 0 0 24 0 0 0 0 930 414 0 0 0 546 0 0 0 0 0 0 0 0 0 0 0 0 33 0 0 442 1024 0 0 0 0 0 0 0 0 0 0 0 0 0 0 181 184 0 0 0 0 0 171 0 0 274 0 0 517 0 0 47 0 0 0 0 0 0 0 0 95 0 0 0 0 0 0 194 0 0 0 675 529 0 0 0 0 0 0 0 91 0 0 3 0 14 16 8 0 0 0 0 0 0 0 0 0 0 0 0 0 0 419 0 0 0 0 0 0 0 0 0 0 900 0 0 0 0 0 0 0 427 20 6 0 0 0 0 43 28 10 0 0 4 0 0 4 1 0 0 149 25 0 0 0 0 34 1 0 0 0 1 0 0 0 0 0 155 0 0 0 0 0 0 0 0 0 4 0 0 0 0 0 0 0 167 49 100 0 0 0 1 0 0 0 56 0 0 0 0 0 1 0 0 0 0 0 34 0 0 0 0 0 0 0 0 0 0 0 0 0 0 0 0 0 4 0 754 0 0 0 0 0 0 0 4 0 20 0 0 0 0 0 0 0 12 3 0 0 0 0 0 0 0 0 0 0 0 0 0 0 0 0 0 0 0 0 0 528 468 0 0 0 0 0 1 138 0 0 211 238 0 0 0 68 0 81 0 0 0 0 0 0 0 0 0 0 0 0 0 0 0 0 0 0 39 0 0 0 0 0 0 0 0 0 0 0 0 0 0 0 0 0 0 0 0 0 0 0 0 0 889 0 0 0 0 0 0 0 151 0 0 0 21 0 0 0 0 0 0 0 0 0 0 0 0 431 0 0 0 0 0 0 0 0 0 0 0 0 0 0 0 0 11 6 0 0 0 0 34 121 0 0 0 0 0 0 0 0 0 0 0 0 0 0 220 0 0 0 0 0 0 0 0 0 0 0 0 0 0 0 0 0 0 0 0 0 0 0 0 0 0 0 0 0 0 0 0 0 0 0 0 0 0 0 0 0 0 0 0 0 6 11 0 20 0 0 0 0 0 0 30 54 0 0 0 0 0 0 3 0 0 0 0 0 24 0 0 0 0 4 0 10 4 9 0 0 0 0 0 0 0 0 0 0 0 0 0 0 0 0 0 0 0 0 0 64 0 0 0 67 31 0 0 0 0 0 23 0 0 0 0 4 0 0 0 0 0 0 0 0 0 0 0 0 0 0 0 0 0 25 0 0 0 0 0 0 0 0 1 0 0 0 0 0 2 9 0 0 0 0 0 0 0 0 66 0 1 0 0 0 53 37 0 0 4 0 0 0 0 0 65 0 4 32 22 168 5 5 4 0 0 0 0 0 207 1 6 0 0 0 0 7 62 0 0 0 0 0 0 0 0 0 0 12 35 0 4 0 0 0 0 0 21 4 99 9 0 1 4 0 0 176 0 0 0 0 0 0 112 0 0 0 0 0 0 0 0 0 0 0 0 0 0 0 0 0 0 0 0 0 7 4 0 0 0 4 0 0 0 0 1 0 17 11 9 0 0 0 0 144 25 0 0 0 148 0 0 0 0 0 0 0 0 0 0 0 72 0 0 0 0 0 0 0 0 0 0 0 0 0 0 0 0 0 0 705 0 0 321 0 0 0 0 0 0 0 0 0 0 64 108 96 9 4 0 0 0 0 0 0 0 0 5 0 0 0 0 0 0 0 0 0 0 0 0 0 0 0 0 0 0 0 0 0 917 0 0 974 0 0 0 0 0 0 2 86 0 0 0 0 0 0 0 0 3 37 0 2 12 96 0 0 0 0 2 6 0 14 0 0 5 0 4 0 0 0 0 0 0 0 0 0 0 0 58 0 0 0 2 0 0 0 0 0 0 0 0 172 0 0 0 0 0 0 0 0 0 0 0 0 0 0 0 0 0 0 0 0 0 86 55 50 146 0 0 56 0 0 0 0 0 0 6 1 8 0 0 9 0 0 0 0 0 0 0 35 0 0 48 0 0 0 0 2 1 0 0 0 140 0 0 59 0 0 0 0 0 2 0 300 0 0 0 0 0 0 0 0 0 0 0 0 0 0 0 0 0 0 52 0 26 0 0 0 0 0 0 0 0 0 0 0 0 0 0 0 0 0 0 19 111 0 4 0 0 0 0 0 0 0 0 0 0 7 26 108 5 2 14 65 0 120 0 0 0 0 0 0 0 0 0 0 0 0 0 0 0 7 0 0 1 0 2 0 0 0 0 0 0 0 0 0 0 88 0 0 0 0 0 0 0 0 0 0 0 0 0 0 0 0 0 0 1063 0 0 0 0 0 0 0 0 21 475 671 0 0 0 0 0 0 0 0 0 0 0 0 14 0 0 0 0 0 0 46 0 0 0 0 0 102 0 0 0 0 0 0 0 110 66 12 20 0 1 52 0 9 0 0 0 0 6 0 206 121 0 0 0 0 16 0 0 0 0 0 0 0 0 0 0 0 0 0 0 0 0 20 0 0 0 0 0 0 0 0 0 0 0 0 0 0 0 0 0 9 0 0 7 0 0 0 0 0 0 0 0 0 0 0 0 0 0 0 0 0 0 0 0 0 0 0 0 0 0 0 0 0 0 0 0 0 0 0 0 0 6 0 0 0 0 5 60 367 0 0 0 157 0 28 44 0 0 0 0 0 0 0 0 0 0 0 0 6 42 0 0 0 0 0 0 0 0 0 0 0 0 0 0 363 3 0 0 0 0 0 0 0 0 0 0 0 0 0 0 0 0 0 0 0 0 0 0 0 0 0 0 0 0 4 0 0 0 4 0 0 0 0 0 0 0 0 0 0 0 0 0 0 0 0 0 0 0 0 0 0 0 0 0 0 0 0 0 0 4 10 42 101 0 0 10 0 0 0 0 0 0 0 0 0 0 8 0 0 0 0 0 0 3 0 0 0 0 0 0 0 0 0 0 0 17 40 0 0 0 0 0 0 0 117 0 16 0 0 0 107 0 0 0 0 573 0 0 0 0 0 0 0 0 0 0 0 0 0 0 0 94 70 5 0 417 0 0 28 0 0 0 0 0 0 4 16 0 0 0 0 0 77 0 0 0 0 0 0 0 0 0 0 4 0 0 23 6 6 18 10 0 16 0 0 25 0 0 0 0 0 0 0 1 0 8 0 0 0 0 0 0 0 0 0 0 0 0 0 0 0 0 0 0 0 0 0 0 0 0 0 97 0 0 0 0 0 0 0 0 0 0 0 0 0 0 0 0 0 0 0 1 3 0 0 0 0 0 0 2 0 14 0 0 1 0 0 0 0 0 0 0 0 0 0 0 0 0 0 0 0 0 0 0 0 0 0 0 0 10 27 0 14 42 0 2 0 36 131 0 13 0 0 0 0 0 0 0 0 1 0 0 0 0 0 0 4 0 0 0 0 0 0 0 0 0 0 0 0 0 4 0 0 0 20 0 0 0 0 0 0 0 0 0 0 0 0 0 0 0 0 0 0 9 0 0 0 0 0 0 0 449 7 3 0 0 0 0 0 5 0 0 0 0 0 0 0 0 1 0 0 0 0 0 0 0 0 0 0 0 26 590 0 11 28 19 17 0 0 0 0 33 5 0 0 0 72 0 0 0 0 0 53 0 0 0 0 0 0 0 0 0 0 6 2 0 32 0 0 12 0 0 42 0 0 3 0 14 0 0 0 0 0 0 0 1 0 0 0 0 0 0 0 0 0 0 0 0 0 0 4 0 0 0 0 0 0 0 0 0 0 3 0 0 0 0 0 0 0 0 0 0 0 0 0 0 0 0 0 0 0 0 0 0 0 0 0 0 0 0 0 0 0 0 0 0 0 0 0 0 0 15 36 1 53 50 0 15 3 0 28 0 0 0 0 3 0 0 26 0 0 37 0 32 0 0 6 2 0 0 5 0 0 0 0 0 0 0 0 1 0 0 1 0 0 0 0 0 0 0 0 0 0 0 0 2 0 0 0 0 0 0 0 0 0 0 0 1 0 0 0 0 2 0 20 172 0 6 206 10 14 0 20 0 0 0 0 0 0 0 77 2 0 0 0 0 0 263 96 16 0 0 0 0 0 0 139 0 0 0 0 0 0 0 0 0 0 0 0 0 0 7 80 0 0 2 0 0 0 0 0 0 0 2 0 0 0 0 0 0 0 0 0 192 0 0 0 0 0 0 0 0 5 0 0 0 0 0 0 0 0 0 0 0 0 17 10 0 0 0 0 48 7 14 0 0 0 0 70 108 0 13 20 0 144 0 0 0 0 0 0 0 0 0 3 0 0 0 36 18 0 0 0 0 0 0 0 0 0 0 0 0 0 0 0 0 0 0 0 0 0 0 0 0 0 1 0 0 0 0 0 0 0 0 0 0 0 0 0 0 0 0 30 0 0 0 152 0 8 0 0 0 0 0 0 0 0 0 0 0 0 0 0 0 
Printing Sanity2
Heartbeat CPU 0 instructions: 10000000 cycles: 2950190 heartbeat IPC: 3.38961 cumulative IPC: 3.38961 (Simulation time: 0 hr 0 min 22 sec) 
Heartbeat CPU 0 instructions: 20000001 cycles: 5929426 heartbeat IPC: 3.35657 cumulative IPC: 3.37301 (Simulation time: 0 hr 0 min 44 sec) 
Heartbeat CPU 0 instructions: 30000003 cycles: 8910809 heartbeat IPC: 3.35415 cumulative IPC: 3.3667 (Simulation time: 0 hr 1 min 7 sec) 
*** Reached end of trace for Core: 0 Repeating trace: traces/spec2k17/srv_42.champsimtrace.xz
Heartbeat CPU 0 instructions: 40000000 cycles: 11889503 heartbeat IPC: 3.35717 cumulative IPC: 3.36431 (Simulation time: 0 hr 1 min 31 sec) 
Heartbeat CPU 0 instructions: 50000002 cycles: 14868492 heartbeat IPC: 3.35684 cumulative IPC: 3.36282 (Simulation time: 0 hr 1 min 53 sec) 

Warmup complete CPU 0 instructions: 50000002 cycles: 14868492 (Simulation time: 0 hr 1 min 53 sec) 

Heartbeat CPU 0 instructions: 60000000 cycles: 46461691 heartbeat IPC: 0.316524 cumulative IPC: 0.316524 (Simulation time: 0 hr 2 min 30 sec) 
*** Reached end of trace for Core: 0 Repeating trace: traces/spec2k17/srv_42.champsimtrace.xz
Heartbeat CPU 0 instructions: 70000001 cycles: 77688470 heartbeat IPC: 0.320238 cumulative IPC: 0.31837 (Simulation time: 0 hr 3 min 7 sec) 
Heartbeat CPU 0 instructions: 80000000 cycles: 108866704 heartbeat IPC: 0.320737 cumulative IPC: 0.319155 (Simulation time: 0 hr 3 min 44 sec) 
Heartbeat CPU 0 instructions: 90000001 cycles: 140459425 heartbeat IPC: 0.316529 cumulative IPC: 0.318494 (Simulation time: 0 hr 4 min 21 sec) 
*** Reached end of trace for Core: 0 Repeating trace: traces/spec2k17/srv_42.champsimtrace.xz
Heartbeat CPU 0 instructions: 100000002 cycles: 171655147 heartbeat IPC: 0.320557 cumulative IPC: 0.318905 (Simulation time: 0 hr 4 min 57 sec) 
Heartbeat CPU 0 instructions: 110000000 cycles: 202888089 heartbeat IPC: 0.320175 cumulative IPC: 0.319116 (Simulation time: 0 hr 5 min 34 sec) 
Heartbeat CPU 0 instructions: 120000000 cycles: 234428887 heartbeat IPC: 0.31705 cumulative IPC: 0.318819 (Simulation time: 0 hr 6 min 11 sec) 
*** Reached end of trace for Core: 0 Repeating trace: traces/spec2k17/srv_42.champsimtrace.xz
Heartbeat CPU 0 instructions: 130000000 cycles: 265519815 heartbeat IPC: 0.321637 cumulative IPC: 0.319168 (Simulation time: 0 hr 6 min 47 sec) 
Heartbeat CPU 0 instructions: 140000001 cycles: 296791016 heartbeat IPC: 0.319783 cumulative IPC: 0.319237 (Simulation time: 0 hr 7 min 24 sec) 
Heartbeat CPU 0 instructions: 150000000 cycles: 328319908 heartbeat IPC: 0.317169 cumulative IPC: 0.319029 (Simulation time: 0 hr 8 min 1 sec) 
*** Reached end of trace for Core: 0 Repeating trace: traces/spec2k17/srv_42.champsimtrace.xz
Heartbeat CPU 0 instructions: 160000002 cycles: 359470597 heartbeat IPC: 0.32102 cumulative IPC: 0.319209 (Simulation time: 0 hr 8 min 37 sec) 
Heartbeat CPU 0 instructions: 170000000 cycles: 390740471 heartbeat IPC: 0.319797 cumulative IPC: 0.319258 (Simulation time: 0 hr 9 min 14 sec) 
Heartbeat CPU 0 instructions: 180000000 cycles: 422150793 heartbeat IPC: 0.318367 cumulative IPC: 0.319189 (Simulation time: 0 hr 9 min 50 sec) 
*** Reached end of trace for Core: 0 Repeating trace: traces/spec2k17/srv_42.champsimtrace.xz
Heartbeat CPU 0 instructions: 190000002 cycles: 453316980 heartbeat IPC: 0.320861 cumulative IPC: 0.319308 (Simulation time: 0 hr 10 min 27 sec) 
Heartbeat CPU 0 instructions: 200000002 cycles: 484568080 heartbeat IPC: 0.319989 cumulative IPC: 0.319353 (Simulation time: 0 hr 11 min 4 sec) 
Heartbeat CPU 0 instructions: 210000002 cycles: 516020038 heartbeat IPC: 0.317945 cumulative IPC: 0.319265 (Simulation time: 0 hr 11 min 40 sec) 
*** Reached end of trace for Core: 0 Repeating trace: traces/spec2k17/srv_42.champsimtrace.xz
Heartbeat CPU 0 instructions: 220000000 cycles: 547207072 heartbeat IPC: 0.320646 cumulative IPC: 0.319346 (Simulation time: 0 hr 12 min 17 sec) 
Heartbeat CPU 0 instructions: 230000001 cycles: 578431701 heartbeat IPC: 0.32026 cumulative IPC: 0.319396 (Simulation time: 0 hr 12 min 54 sec) 
Heartbeat CPU 0 instructions: 240000001 cycles: 609714332 heartbeat IPC: 0.319666 cumulative IPC: 0.31941 (Simulation time: 0 hr 13 min 32 sec) 
*** Reached end of trace for Core: 0 Repeating trace: traces/spec2k17/srv_42.champsimtrace.xz
Heartbeat CPU 0 instructions: 250000002 cycles: 641077253 heartbeat IPC: 0.318848 cumulative IPC: 0.319382 (Simulation time: 0 hr 14 min 8 sec) 
Finished CPU 0 instructions: 200000000 cycles: 626208761 cumulative IPC: 0.319382 (Simulation time: 0 hr 14 min 8 sec) 

ChampSim completed all CPUs

Region of Interest Statistics

CPU 0 cumulative IPC: 0.319382 instructions: 200000000 cycles: 626208761
ITLB TOTAL     ACCESS:   34791490  HIT:   33140712  MISS:    1650778  HIT %:    95.2552  MISS %:    4.74478   MPKI: 8.25389
ITLB LOAD TRANSLATION ACCESS:   34791490  HIT:   33140712  MISS:    1650778  HIT %:    95.2552  MISS %:    4.74478   MPKI: 8.25389
ITLB PREFETCH  REQUESTED:          0  ISSUED:          0  USEFUL:          0  USELESS:          0
ITLB USEFUL LOAD PREFETCHES:          0 PREFETCH ISSUED TO LOWER LEVEL:          0  ACCURACY: -nan
ITLB TIMELY PREFETCHES:          0 LATE PREFETCHES: 0 DROPPED PREFETCHES: 0
ITLB PREFETCHES SAME FILL-ORIGIN LEVEL: 0 DIFFERENT FILL-ORIGIN LEVEL: 0
ITLB AVERAGE MISS LATENCY: 9.78403 cycles
ITLB RQ	ACCESS:   40700298	FORWARD:          0	MERGED:    5417916	TO_CACHE:   35282382

DTLB TOTAL     ACCESS:   45991841  HIT:   44169979  MISS:    1821862  HIT %:    96.0387  MISS %:    3.96127   MPKI: 9.10931
DTLB LOAD TRANSLATION ACCESS:   45991841  HIT:   44169979  MISS:    1821862  HIT %:    96.0387  MISS %:    3.96127   MPKI: 9.10931
DTLB PREFETCH  REQUESTED:          0  ISSUED:          0  USEFUL:          0  USELESS:          0
DTLB USEFUL LOAD PREFETCHES:          0 PREFETCH ISSUED TO LOWER LEVEL:          0  ACCURACY: -nan
DTLB TIMELY PREFETCHES:          0 LATE PREFETCHES: 0 DROPPED PREFETCHES: 0
DTLB PREFETCHES SAME FILL-ORIGIN LEVEL: 0 DIFFERENT FILL-ORIGIN LEVEL: 0
DTLB AVERAGE MISS LATENCY: 12.2845 cycles
DTLB RQ	ACCESS:   61141497	FORWARD:          0	MERGED:   15031429	TO_CACHE:   46110068

STLB TOTAL     ACCESS:   31872017  HIT:   31752213  MISS:     119804  HIT %:    99.6241  MISS %:   0.375891   MPKI: 0.59902
STLB LOAD TRANSLATION ACCESS:    3472640  HIT:    3355310  MISS:     117330  HIT %:    96.6213  MISS %:     3.3787   MPKI: 0.58665
STLB TRANSLATION FROM L1D PREFETCHER ACCESS:   28399377  HIT:   28396903  MISS:       2474  HIT %:    99.9913  MISS %: 0.00871146   MPKI: 0.01237
STLB PREFETCH  REQUESTED:          0  ISSUED:          0  USEFUL:       2449  USELESS:         25
STLB USEFUL LOAD PREFETCHES:       2449 PREFETCH ISSUED TO LOWER LEVEL:          0  ACCURACY: inf
STLB TIMELY PREFETCHES:       2449 LATE PREFETCHES: 0 DROPPED PREFETCHES: 222561
STLB PREFETCHES SAME FILL-ORIGIN LEVEL: 0 DIFFERENT FILL-ORIGIN LEVEL: 0
STLB AVERAGE MISS LATENCY: 61.4591 cycles
STLB RQ	ACCESS:   37842913	FORWARD:          0	MERGED:    5747373	TO_CACHE:   32095540

STLB Hit, L1D data hit: 0
STLB Hit, L2C data hit: 0
STLB Hit, LLC data hit: 0
STLB Hit, LLC data miss: 0
STLB STLB hints to L2: 0
L1D TOTAL     ACCESS:   93106668  HIT:   85373707  MISS:    7732961  HIT %:    91.6945  MISS %:    8.30549   MPKI: 38.6648
L1D LOAD      ACCESS:   35379151  HIT:   32086240  MISS:    3292911  HIT %:    90.6925  MISS %:    9.30749   MPKI: 16.4646
L1D RFO       ACCESS:   23761014  HIT:   22607028  MISS:    1153986  HIT %:    95.1434  MISS %:    4.85664   MPKI: 5.76993
L1D PREFETCH  ACCESS:   33966503  HIT:   30680439  MISS:    3286064  HIT %:    90.3256  MISS %:    9.67443   MPKI: 16.4303
AGUS PREFETCH L1 MISS: 0
L1D PREFETCH  REQUESTED:   69902599  ISSUED:   69902551  USEFUL:     581439  USELESS:    2704614
L1D USEFUL LOAD PREFETCHES:     581439 PREFETCH ISSUED TO LOWER LEVEL:    3292046  ACCURACY: 17.6619
L1D TIMELY PREFETCHES:     581439 LATE PREFETCHES: 5918 DROPPED PREFETCHES: 253569
L1D PREFETCHES SAME FILL-ORIGIN LEVEL: 3292046 DIFFERENT FILL-ORIGIN LEVEL: 0
L1D AVERAGE MISS LATENCY: 251996 cycles
L1D RQ	ACCESS:   46611698	FORWARD:          0	MERGED:   10865240	TO_CACHE:   35532326
L1D WQ	ACCESS:   25941685	FORWARD:     245124	MERGED:     332514	TO_CACHE:   25609171
L1D PQ	ACCESS:   35532278	FORWARD:          0	MERGED:    1131013	TO_CACHE:   34370273

L1D UNIQUE REGIONS ACCESSED: 0
L1D REGIONS CONFLICTS: 0
L1D Cross Page Prefetch Requests: 1320564
L1D Same Page Prefetch Requests: 41050385
L1D ROI Sum of L1D PQ occupancy: 450567668
L1D PREFETCHES PUSHED FROM L2C: 0
L1I TOTAL     ACCESS:   39391344  HIT:   30932962  MISS:    8458382  HIT %:    78.5273  MISS %:    21.4727   MPKI: 42.2919
L1I LOAD      ACCESS:   39391344  HIT:   30932962  MISS:    8458382  HIT %:    78.5273  MISS %:    21.4727   MPKI: 42.2919
L1I PREFETCH  REQUESTED:          0  ISSUED:          0  USEFUL:          0  USELESS:          0
L1I USEFUL LOAD PREFETCHES:          0 PREFETCH ISSUED TO LOWER LEVEL:          0  ACCURACY: -nan
L1I TIMELY PREFETCHES:          0 LATE PREFETCHES: 0 DROPPED PREFETCHES: 0
L1I PREFETCHES SAME FILL-ORIGIN LEVEL: 0 DIFFERENT FILL-ORIGIN LEVEL: 0
L1I AVERAGE MISS LATENCY: 23.058 cycles
L1I RQ	ACCESS:   60016147	FORWARD:          0	MERGED:   19315849	TO_CACHE:   40700298

BTB TOTAL     ACCESS:   29850924  HIT:   19884743  MISS:    9966181  HIT %:    66.6135  MISS %:    33.3865   MPKI: 49.8309
BTB BRANCH_DIRECT_JUMP	ACCESS:    2604773  HIT:    1779545  MISS:     825228
BTB BRANCH_INDIRECT	ACCESS:   12507392  HIT:    8343784  MISS:    4163608
BTB BRANCH_CONDITIONAL	ACCESS:    6652538  HIT:    5757723  MISS:     894815
BTB BRANCH_DIRECT_CALL	ACCESS:    3088472  HIT:    1613786  MISS:    1474686
BTB BRANCH_INDIRECT_CALL	ACCESS:     954646  HIT:     671097  MISS:     283549
BTB BRANCH_RETURN	ACCESS:    4043103  HIT:    1718808  MISS:    2324295
BTB BRANCH_OTHER ACCESS:          0  HIT:          0  MISS:          0

L2C TOTAL     ACCESS:   19012717  HIT:   13252292  MISS:    5760425  HIT %:    69.7023  MISS %:    30.2977   MPKI: 28.8021
L2C LOAD      ACCESS:   11745336  HIT:    8100614  MISS:    3644722  HIT %:    68.9688  MISS %:    31.0312   MPKI: 18.2236
L2C DATA LOAD MPKI: 5.71406
L2C INSTRUCTION LOAD MPKI: 12.5096
L2C RFO       ACCESS:    1153922  HIT:     519762  MISS:     634160  HIT %:    45.0431  MISS %:    54.9569   MPKI: 3.1708
L2C PREFETCH  ACCESS:    3292039  HIT:    2016102  MISS:    1275937  HIT %:    61.2417  MISS %:    38.7583   MPKI: 6.37969
AGUS PREFETCH L1 MISS: 0
L2C DATA PREFETCH MPKI: 6.37969
L2C INSTRUCTION PREFETCH MPKI: 0
L2C WRITEBACK ACCESS:    2309991  HIT:    2223023  MISS:      86968  HIT %:    96.2351  MISS %:    3.76486   MPKI: 0.43484
L2C LOAD TRANSLATION ACCESS:     207167  HIT:     104986  MISS:     102181  HIT %:     50.677  MISS %:     49.323   MPKI: 0.510905
L2C TRANSLATION FROM L1D PREFETCHER ACCESS:     304262  HIT:     287805  MISS:      16457  HIT %:    94.5912  MISS %:    5.40883   MPKI: 0.082285
L2C PREFETCH  REQUESTED:          0  ISSUED:          0  USEFUL:      71226  USELESS:    1221029
L2C USEFUL LOAD PREFETCHES:      71226 PREFETCH ISSUED TO LOWER LEVEL:    1275937  ACCURACY: 5.58225
L2C TIMELY PREFETCHES:      71226 LATE PREFETCHES: 0 DROPPED PREFETCHES: 0
L2C PREFETCHES SAME FILL-ORIGIN LEVEL: 0 DIFFERENT FILL-ORIGIN LEVEL: 0
L2C AVERAGE MISS LATENCY: 34.9089 cycles
L2C RQ	ACCESS:   13410725	FORWARD:          0	MERGED:          0	TO_CACHE:   13410687
L2C WQ	ACCESS:    2309991	FORWARD:         45	MERGED:          0	TO_CACHE:    2309991
L2C PQ	ACCESS:    3292046	FORWARD:          0	MERGED:          0	TO_CACHE:    3292039

L2C Instructions Evicting Data 1278555
L2C Translations Evicting Data 74610
L2C Data Evicting Data 1730265
L2C Instructions Evicting Instructions 1182395
L2C Translations Evicting Instructions 40377
L2C Data Evicting Instructions 1250451
L2C Instructions Evicting Translations 40961
L2C Translations Evicting Translations 3651
L2C Data Evicting Translations 72192
L2C Dense regions hint from L2: 0
PSCL5 TOTAL     ACCESS:     342365  HIT:     342365  MISS:          0  HIT %:        100  MISS %:          0   MPKI: 0
PSCL5 LOAD TRANSLATION ACCESS:     117330  HIT:     117330  MISS:          0  HIT %:        100  MISS %:          0   MPKI: 0
PSCL5 TRANSLATION FROM L1D PREFETCHER ACCESS:     225035  HIT:     225035  MISS:          0  HIT %:        100  MISS %:          0   MPKI: 0
PSCL5 PREFETCH  REQUESTED:          0  ISSUED:          0  USEFUL:          0  USELESS:          0
PSCL5 USEFUL LOAD PREFETCHES:          0 PREFETCH ISSUED TO LOWER LEVEL:          0  ACCURACY: -nan
PSCL5 TIMELY PREFETCHES:          0 LATE PREFETCHES: 0 DROPPED PREFETCHES: 0
PSCL5 PREFETCHES SAME FILL-ORIGIN LEVEL: 0 DIFFERENT FILL-ORIGIN LEVEL: 0

PSCL4 TOTAL     ACCESS:     328455  HIT:     324937  MISS:       3518  HIT %:    98.9289  MISS %:    1.07108   MPKI: 0.01759
PSCL4 LOAD TRANSLATION ACCESS:     111604  HIT:     108086  MISS:       3518  HIT %:    96.8478  MISS %:    3.15222   MPKI: 0.01759
PSCL4 TRANSLATION FROM L1D PREFETCHER ACCESS:     216851  HIT:     216851  MISS:          0  HIT %:        100  MISS %:          0   MPKI: 0
PSCL4 PREFETCH  REQUESTED:          0  ISSUED:          0  USEFUL:          0  USELESS:          0
PSCL4 USEFUL LOAD PREFETCHES:          0 PREFETCH ISSUED TO LOWER LEVEL:          0  ACCURACY: -nan
PSCL4 TIMELY PREFETCHES:          0 LATE PREFETCHES: 0 DROPPED PREFETCHES: 0
PSCL4 PREFETCHES SAME FILL-ORIGIN LEVEL: 0 DIFFERENT FILL-ORIGIN LEVEL: 0

PSCL3 TOTAL     ACCESS:     302933  HIT:     279246  MISS:      23687  HIT %:    92.1808  MISS %:    7.81922   MPKI: 0.118435
PSCL3 LOAD TRANSLATION ACCESS:     111400  HIT:      87713  MISS:      23687  HIT %:     78.737  MISS %:     21.263   MPKI: 0.118435
PSCL3 TRANSLATION FROM L1D PREFETCHER ACCESS:     191533  HIT:     191533  MISS:          0  HIT %:        100  MISS %:          0   MPKI: 0
PSCL3 PREFETCH  REQUESTED:          0  ISSUED:          0  USEFUL:          0  USELESS:          0
PSCL3 USEFUL LOAD PREFETCHES:          0 PREFETCH ISSUED TO LOWER LEVEL:          0  ACCURACY: -nan
PSCL3 TIMELY PREFETCHES:          0 LATE PREFETCHES: 0 DROPPED PREFETCHES: 0
PSCL3 PREFETCHES SAME FILL-ORIGIN LEVEL: 0 DIFFERENT FILL-ORIGIN LEVEL: 0

PSCL2 TOTAL     ACCESS:     264794  HIT:     200796  MISS:      63998  HIT %:     75.831  MISS %:     24.169   MPKI: 0.31999
PSCL2 LOAD TRANSLATION ACCESS:     118333  HIT:      54335  MISS:      63998  HIT %:     45.917  MISS %:     54.083   MPKI: 0.31999
PSCL2 TRANSLATION FROM L1D PREFETCHER ACCESS:     146461  HIT:     146461  MISS:          0  HIT %:        100  MISS %:          0   MPKI: 0
PSCL2 PREFETCH  REQUESTED:          0  ISSUED:          0  USEFUL:          0  USELESS:          0
PSCL2 USEFUL LOAD PREFETCHES:          0 PREFETCH ISSUED TO LOWER LEVEL:          0  ACCURACY: -nan
PSCL2 TIMELY PREFETCHES:          0 LATE PREFETCHES: 0 DROPPED PREFETCHES: 0
PSCL2 PREFETCHES SAME FILL-ORIGIN LEVEL: 0 DIFFERENT FILL-ORIGIN LEVEL: 0

LLC TOTAL     ACCESS:    6725895  HIT:    6541612  MISS:     184283  HIT %:    97.2601  MISS %:     2.7399   MPKI: 0.921415
LLC LOAD      ACCESS:    3644722  HIT:    3570548  MISS:      74174  HIT %:    97.9649  MISS %:    2.03511   MPKI: 0.37087
LLC RFO       ACCESS:     634160  HIT:     584390  MISS:      49770  HIT %:    92.1518  MISS %:    7.84818   MPKI: 0.24885
LLC PREFETCH  ACCESS:    1275937  HIT:    1222276  MISS:      53661  HIT %:    95.7944  MISS %:    4.20562   MPKI: 0.268305
AGUS PREFETCH L1 MISS: 0
LLC WRITEBACK ACCESS:    1052438  HIT:    1051924  MISS:        514  HIT %:    99.9512  MISS %:   0.048839   MPKI: 0.00257
LLC LOAD TRANSLATION ACCESS:     102181  HIT:      96965  MISS:       5216  HIT %:    94.8953  MISS %:    5.10467   MPKI: 0.02608
LLC TRANSLATION FROM L1D PREFETCHER ACCESS:      16457  HIT:      15509  MISS:        948  HIT %:    94.2395  MISS %:    5.76047   MPKI: 0.00474
LLC PREFETCH  REQUESTED:          0  ISSUED:          0  USEFUL:       2434  USELESS:      52165
LLC USEFUL LOAD PREFETCHES:       2434 PREFETCH ISSUED TO LOWER LEVEL:      53661  ACCURACY: 4.53588
LLC TIMELY PREFETCHES:       2434 LATE PREFETCHES: 0 DROPPED PREFETCHES: 0
LLC PREFETCHES SAME FILL-ORIGIN LEVEL: 0 DIFFERENT FILL-ORIGIN LEVEL: 0
LLC AVERAGE MISS LATENCY: 167.59 cycles
LLC RQ	ACCESS:    4397520	FORWARD:          0	MERGED:          0	TO_CACHE:    4397520
LLC WQ	ACCESS:    1052438	FORWARD:          0	MERGED:          0	TO_CACHE:    1052438
LLC PQ	ACCESS:    1275937	FORWARD:          0	MERGED:          0	TO_CACHE:    1275937

LLC Dense regions hint to LLC: 0

RAW hits: 3185473
Loads Generated: 49797173
Loads sent to L1D: 46611698
Stores Generated: 25941683
Stores sent to L1D: 25941685
Major fault: 0 Minor fault: 4280
Allocated PAGES: 4280
ucb ended
-----------------------------------------------------------------------------------------------------------------------------------------------------------------------------------------------------
Offsets elements: 36 1 22585 -22622 -156 10174688 -10151910 10151876 -10151876 -1 2 10151909 -10174534 22624 -3 10150616 -10150612 10150613 10150611 10150612 -10150613 -256 -6894 10157763 -10150616 -5097 10155713 -10150615 10150614 -10150614 3 -2 -22608 -318403 341008 -21302 21301 -72134 -39172 -2200619325110 2200619436418 -12792969 12418117 -2200619061184 2200606643067 12418118 4 -4 374844 -374843 374846 -111307 111307 5 -20844 20835 9 -111312 111311 -7 -22613 22631 -2200619353784 33466 -10093 2200619330406 -2200619320314 2200619320316 -22642 22644 -22645 37 22601 22646 -22646 10172540 -10149889 -288223781549164595 -52 849720274 -849720272 849791944 -1465996233040 1465996233040 -855638838 -1465140592012 23759020 -23758156 -2900 1465996224600 -849783609 -49 288223781559314809 -10172815 -2200619448107 2200619448107 23 318403 319706 -50829 111316 -111316 111314 -12792975 12681659 111319 -2200619436044 2200619436041 12418114 374861 -374859 374845 -374844 -11 124508 -124507 12792977 124502 -124506 124504 -124504 124505 -426055 426055 -12 124511 -124511 124507 -499360 499359 -124508 -374847 -6 -12792972 12792973 -12792977 12681658 111317 22651 -50 -1465146441095 1465146441099 849791941 -849791944 -1465146441435 455 10515 1465146430517 849783350 -849783399 -5846879 21 91 -1465140594333 -1465996232929 1465996161239 71690 -71345 66384 -849786982 1465146441097 -855638707 854640333 -848793568 -1465146563922 122337 1465995184940 -854590219 -14 -1465140594243 21987 -11472 -10726 22151 -21837 29529 -11781 -17911 1465996224542 -1465996224724 29874 -7730 1465146419230 -1465146441441 22199 1465995212812 -43 44 -19 -1465995212773 1465995212749 -1465995234702 10661 1465995224083 -1465995225011 1465995225009 -18 -848793600 -1465146441597 3560 1465146438036 -1465146437267 -4167 3412 -3074 -1465996233269 348 1465996161231 -8 71698 4961 -1465996232914 1465140594199 -1465116822372 -23771827 23771827 1465122669145 -1465146441242 621 1465140593846 -1465140593847 17388 -17748 1465146441029 -1465996224730 -21963 21962 1465995212757 43 -1465995212763 1465146419143 -1465146412209 1465146412211 -5846793 -1465140594381 1465140594277 864 1465146438044 -5846792 5846792 -5846791 5846793 486 5846308 -5846795 -99 -1465140594208 1465140594208 855638832 -1465996233115 23758156 -23761056 288223781559314760 12792978 -111319 -2200619324725 499363 426052 -124505 -499363 499361 -499361 374853 124512 -147145 147144 -124510 124510 -499348 -5 10 339024 191718 -13619 -142298 142273 14 -10 10007629 -2200629503697 13 -13 2200629504003 -3072 1652 35 -10006546 -15 10006561 -2200629502605 2448 2200619351318 -2200619351319 2200629500155 -10148836 -2200619353762 2200619496049 10006549 -10006560 -2200619610438 2200619610452 2105 10004453 -10006610 2158 -2158 29 -142255 142249 13940 -156189 -2200619351265 2200619351266 142281 -482499 10486949 -10006559 2106 -2106 -2200619493991 2200619493997 10007940 -2200629618379 2200619610439 -2200619610437 2200619612541 -2105 -2104 2107 -2080 10006495 -10006562 30 2077 -2200619498165 2200619353780 10148615 -10004229 -2200619494008 2200619496113 -144386 144386 -496827 10503347 31 -10503385 10503352 -10503348 10503350 -10503351 498932 -498932 498933 -498934 -1107609 1107609 10503351 33 -10503384 -10503352 -10503350 354543 -354545 10503353 -10503354 10503349 -10148805 10148803 -10503349 10503384 -10148838 -4698019 4698022 142274 10006559 -2200629616996 2200619610385 10006611 -2200629500565 2200619493956 11 52 2157 2108 -2160 10006610 -2200619494007 2200619351729 10148837 -10006611 -142223 142276 10006562 -2200629616999 2200619468162 10148835 -35 -10148798 142297 -142297 155915 -155914 -35804 35806 -374833 374834 -374830 374830 -550549 550548 -3744601584 3739760511 14868633 -14868633 4716557 -3744477068 3744477068 -2200619477926 2196874876881 3739759985 14868620 -3754628605 -3739759985 3744476532 374850 -12792974 -1465146441094 1465146441098 849791942 -1465146441434 10970 -10515 1465146441032 -849783400 -5846857 5846857 -1465146441098 1465146441101 849791939 -849791941 -5846794 -1465140594307 1465146441102 849791938 -849791938 -5846824 488 -1465140598075 1465140597558 5846826 89 -89 78 -98 5846898 -1465146441118 -1465996222245 1465140583528 -1465140594413 1465140594416 -100 -1465140583732 11460 1465140572372 -1465140564683 1465140564683 5846741 -1465146423201 -849783430 -5846847 -1465140594218 111 1465996232929 -71690 345 71345 -4961 -849787013 -1465146441064 1465146441066 849791974 -849791975 -5846779 -1465140576423 -849783429 -1465140594429 1465140594404 -1465140583478 -10644 1465140594122 853544680 2085813 -855630494 5846883 -5846883 -1465140594129 1465140594129 -40 -1465140594246 40045 1465140554223 92 -55 -1465140582397 -15164 3140 1465140594421 -1465140608578 14302 -1465996233414 374 -849791982 -1465146430260 -10798 849791976 -1465996233384 1465140594667 -1465140699048 1465146545794 -1465146429384 -11685 1465146441105 849791935 -855638807 561 -1465140590968 1465140590381 -1465140655398 1465140655572 -1465140594259 1465140594317 351 -1465140594798 1465140594262 855638778 -2094097 -1465994138804 1465140594123 855630492 -855630493 -79 -5846804 -1465140594130 1465140594130 5846805 -989798 -1465995234571 854640250 -848793635 -1465146441063 1465146441062 -5846785 855638761 -855638817 -1465140594223 -5846788 855638764 -1465996233427 1465140594605 5846851 -1465146444354 1465140597610 -107 104 -1465140583529 1465140583532 -1465140594199 -1465140594973 1465994803438 -854208465 -1465140572521 1465140572522 -117 5846735 -1465146440946 1465146440950 -5846851 15 -22 174 58 -1465140718519 1465140718301 5846847 -1465146441066 -855638720 -17 -92 196 -1465140594368 1465140594335 -1465140583595 1465140583628 -134 -56 5846833 -5846846 -1465140594385 1465140594512 5846718 1465140594422 855638618 -855638679 -1465140582659 1465140582649 -140 -58 -1465140594697 145 1465146441229 -5846711 -1465140594610 -105402 1465140699920 112 -85 -30 107 -1465140594927 588 1465996213867 -849783350 -5846937 -24 5846700 -5846714 5846715 855638619 -855638822 1465140594550 27 -1465140699062 1465140699074 -1465140594421 10797 1465996222243 1465140594412 855638628 -849791976 -5846653 5846651 1465146441064 -849791977 -1465146441437 11171 1465146430267 -1465146440996 -68 -1465996222444 -10596 -849792011 -5846609 -33 -170 -855638717 5846746 -5846748 -90 -1465140590404 1465140590400 -1465140594556 1465140594538 210 -210 133 77 -172 1465996233212 -1465996219290 -112492 1465140693163 -83 62 5846671 -1465146441071 1465140594338 -105 855638807 -849791968 -1465146437242 -109404 1465146546645 -5846630 -1465140552786 -37825 1465146437240 -5846629 -1465140700016 147238 1465146399407 -1465146437239 1465140590610 -1465140552777 1465146399406 5846629 -1465146399407 1465140552778 -1465146399406 1465140552777 1465146399409 -1465146441073 1465146441072 849791968 -1465996233301 11963 1465140582741 -1465140699989 -9 1465140699998 -1465140699998 75 1465140699912 5846628 -5846628 -1465146546626 1465146546626 -1465146455394 1465146455394 -1465146532101 1465140685351 -1465140699879 1465140699879 5846747 -1465140590612 37826 1465140552786 -1465140608766 14323 1465146440927 -1465146399270 1465146399268 849792116 -849792111 -1465146440929 1465146440928 849792113 -849791967 -141 -1465146544041 1465146544050 -1465146543717 2011 1465140695192 -1465140693141 1465146539812 -1465146437241 -1465146546645 1465140700016 -1465140590610 37824 1465146399415 -1465146441072 1465140594704 -1465140582741 -117257 1465140699989 26 1465140699972 -1465140699961 -37 1465146546589 -1465146546589 105518 -1465996338556 91049 1465146455391 -1465146440927 1465146440929 144 849791966 -849792110 -5846605 5846626 -1465146544062 4224 -3966 -218 -87 1465146544160 -63 63 -66 -1465146543879 -168 1465146544063 -1465146543986 4136 164 -4376 -96 334 1465146543782 -67 -1465146543898 338 4088 1465146539624 -1465146543778 1465146543795 -1465146541783 2146 -175 1465146539795 -1465146544007 215 1465146543946 -64 -1465146543973 1465140697456 -1465140697003 2012 1465140695158 1465146441073 -102486 1465996331695 -1465140590611 -1465146399415 -37824 -1465146399414 8 147239 -1465146441074 -1465146441333 855638597 -1465996221338 -1465140552778 -147219 105554 -1465146546618 1465996338586 -5846860 -1465140699639 1465140699813 5846630 -1465140594443 849791967 -5846750 5846614 -5846614 -5846604 -1465140594198 1465140594361 5846442 -1465146544047 1465146544064 -1465146542974 1285 -155 1465146539815 -1465146544002 1465146544153 -1465146543938 1465146543873 -1465146543984 244 4049 -162 -4195 1465146544085 68 -1465146543967 2175 -2011 4168 1465140693121 -1465140594338 1465140594233 167 -1465996229209 -1465146399417 -119 -1465140552667 1465146399273 -1465146546502 2447 4259 -3974 1465146543793 -1465146544019 1465146544019 51 -1465146544153 1465140697361 -51 -5846567 -1465140594576 11812 1465146429259 -1465146543873 -97 1465146543967 17 -1465146543817 -2273 1465146544061 -1465146539548 1465146539548 -1465146539759 1465146539759 -1465146543740 -270 1465146543953 -1465146543972 1465146543976 -1465146543827 2304 -4237 1465140695222 -1465140692911 1465140692973 -62 5846838 1465996229208 1465146437241 -1465146399416 1465146399408 -5846861 -1465140594211 1465140594443 -1465140594704 1465146441333 855638655 -1465996338594 117256 -1465140699931 105672 -1465140699985 1465140699985 1465140594362 -164 5846604 25 -16 968 1407 1465146544154 1465146543957 -1465146539664 -3846 -349 1465146544088 -1465146543870 1465140697356 -1465140697453 1465140697370 -1465140697227 1465146541887 -5846733 -1465140692775 1465146539615 -3831 -144 -5846484 5846487 849792110 -849791969 1465146399272 -1465140699897 1465140699897 -1465140697450 4004 1465146539742 -1465146544021 1465146544021 50 5846743 -1465146544103 1465140697535 -1465140594736 153 3460 1465146437684 -1465146441430 1465146441363 166 1465146541808 -1465146539477 -246 -4280 216 1465146544007 -1465146539480 1465146539741 -5846743 -1465140697008 -275 1465140697544 -1465140594847 1465140594905 1465146441171 -1465146441476 -1465146543880 1465146543881 1465146543973 -1465146543941 4464 1465146539477 -1465146544061 1465140697547 -102349 1465996331558 -1465996338613 1465146399417 41658 7 1465996191375 105573 -1465146429370 -117256 1465996338594 1465140699757 -1465140594317 5846483 146 -145 -136 -1465146440812 1465140594366 855638548 -855638716 5846606 -5846437 -1465140697604 -1465146542916 1465146542920 -1465146540906 1465146540905 -1465146539815 155 -4342 1465146544022 -1465146544105 1465146543872 -1465146543969 1465146543970 20 -1465146544009 312 1465146543626 -1465146539645 1465146543941 16 -1465146543987 1465140697453 -1465140697138 1465140695188 -105573 41657 1465996191383 -1465146546647 -1465146544055 1465146543747 -5846744 -1465140692999 98648 -153 -102774 1465140697452 -1465140697535 106470 -3745 1465146441431 -5846563 5846511 -20 72 2205 4296 1465146539743 -1465146544023 263 1465146541712 -1465146539723 267 -4571 1465146544163 -1465146441426 1465140594963 5846446 -1465146440821 1465146440814 -1465146430299 1465146430373 -1465146441171 1465140594658 5846444 849783561 -213 1465146543882 -5846727 -1465140697246 1465140697391 5846553 1465140692985 5846491 -1465146544060 -1465146543765 1465146541752 -1465146539453 1465140692939 -1465140552785 -37826 -1465146399409 -5846688 105680 11576 1465146546619 1465140594369 -171 -1465146544067 3142 -2012 3257 -4187 1465146543870 -1465146543970 4293 -3819 1465146543646 -1465146544022 -1465140697370 1465140697432 -1465146543871 1465140695126 -1465996191383 143 4338 -4004 194 2285 1465146544023 -1465146544086 1465146544105 -1465146543890 102560 -102885 111388 -109132 -267 1465146539916 -1465146544220 1465996327657 -855630287 -1465140594378 -5846569 106 -48 5846492 69 -70 -5846443 5846447 1465146543879 -120 4584 1465146539480 1465146541750 -167 -109405 1465996338613 5846631 1465140552787 -1465140594444 1465996191374 1465140700017 -41926 -11702 1465140594444 1465146546625 -1465140699747 105662 1465140594259 -5846575 -1465140594498 -126 849792102 5846440 -1465146544050 1465146544046 -1465146542920 -1465146539660 -1465146543629 -312 1465146543938 -71 1465140697571 -1465140697273 -5846554 5846555 116 103032 -1465140697033 1465996333828 -102373 -7031 1465146399414 1465146544073 -1465140594351 1465146441077 -1465146544087 102857 1465146441247 -5846570 -1465140591065 1465140594868 1465146544089 1465146543987 -1465146543724 2256 98884 -103188 11103 -5846438 -1465146441104 -5846545 5846619 -5846513 -5846495 -1465140697569 182 1465146543942 -1465146539478 -1465146543763 2298 -109406 1465140552779 -41666 41926 -855638596 -1465140582742 1465146546617 1465146440925 -1465146546404 1465996338520 5846485 -5846483 855638596 -1465996338595 91221 1465146455407 1465146455408 -1465146546668 1465140699918 -1465146544029 1465146544038 -1465146543784 1465146541776 -1465146539528 -231 1465140693225 -1465140697472 1465146544230 -1465146544015 1465146543950 -5846600 5846721 -1465146543990 1465146544079 -102404 -7000 1465140552667 1465146546503 -1465140697029 1465140695184 1465996331582 -37827 1465140590614 1465146546644 -102852 1465140655398 -1465140594085 5846688 -1465140594229 1465140594631 -402 -5846203 5846204 -1465146544043 -5846745 -1465140696576 1465140696750 -1465140694738 1660 98864 -103068 1465996336191 -849792033 -5846622 1465146441007 -1465146441300 1465996233333 -1465996233180 1465140594641 -1465140591181 -3607 -122862 1465146564105 -1465146543874 1465146543892 -21 4315 -173 -4025 -182 1465146543943 -69 -1465146543988 1465146539817 -1465146543809 -225 -93 1465146544109 -1465146543894 1465146543891 -1465146543974 1465140697431 -1465146543903 4143 1465140693027 -1465140594233 1465996229209 -1465140552787 -147230 -1465140693186 1465146539818 -1465146544082 48 -94 286 1465146543824 -72 -1465146543892 -169 87 4321 -3986 1465146543804 -272 1465146544180 -1465146543893 -81 -3989 1465146543807 -1465146544014 1465146543965 -1465146544133 1465146544081 18 -1465146543995 -3955 -262 1465146544108 -1465146543965 1465146543896 458 1465146543624 -1465146541612 2139 -259 1465146539711 -1465146543771 -236 -86 -1465146544042 4489 -4135 -161 -1465140594673 -102696 102991 283 -588 1465146441427 -5846571 -1465140583754 1465140583812 855630055 -849783491 141 5846550 -5846494 1465146441103 1465146543880 4609 1465146539455 -1465146543720 1465146543716 -1465146543723 1465146541715 -1465146539435 1465140692921 1465146437242 -109403 -1465140590614 -1465140655631 1465146502259 -1465146502259 1465140655631 5846627 -1465146502258 -233 -1465140552546 1465140594318 -5846485 5846484 402 22 -1465146544065 1465140697319 -1465140694564 -1465140693078 1465140693307 -1465140697511 103151 -849792032 -5846504 -1465140594504 -1465146441301 1465146437613 -1465146441220 -1465146543872 1465146543875 -203 1465146543944 1465146543960 -1465146543789 4144 -4217 1465146544106 -1465146543895 -5846514 -1465140697377 1465140697410 -1465146539760 -4123 1465140697150 142 4264 -4024 -192 1465146544035 -1465146544128 1465146544129 -1465146543914 -1465146543978 1465146543945 -1465146539624 -4138 -299 -3945 1465146544036 -1465146544130 1465146543978 -1465146543769 1465146543765 -1465146543945 1465146543966 1465146544083 -1465146543996 -4050 95 1465146544181 392 2118 1465146539733 -1465146543793 1465146541814 -1465146539496 -273 98878 -113703 1465996327656 -193 -5846451 5846452 1465140594671 5846434 -1465146543878 -183 -1465146539451 -4265 1465146543720 -1465146543725 -5846839 211 -1465146437240 1465140590612 -1465140700017 109406 1465146437239 1465140590611 -5846627 -1465140590613 1465140590613 -5846626 5846625 5846480 -5846482 5846482 849792111 -5846212 5846208 -1465146544039 1465146544037 -1465146543294 1656 1465146539820 -1465146544025 1465140697489 -127 5846863 -5846689 -3642 1465146441330 -1465146441166 1465146441092 -5846515 -1465140697169 -1465146440939 1465140594400 -106863 1465996336043 1465140700019 -1465140693135 -4223 144569 -41657 -3971 -235 1465146544025 -1465146544108 1465146544159 -73 1465146539796 -1465146543767 1465146543964 -116 314 4123 1465146539819 -1465146543843 1465146544111 -1465146543896 -4437 299 3945 1465146544110 1465146543915 1465146539797 -249 214 4223 -1465146543774 -4060 1465146544029 -1465146544115 1465146544092 -1465146543950 102471 -103151 113666 -113521 1465996325377 -1465146539637 -1465140697283 1465140594552 119 5846503 -5846430 -1465146539452 1465146543717 337 5846839 1465140552789 1465140590615 -1465140590615 -5846625 1465140594320 -5846210 5846209 -1465146544036 2754 3668 1465140697406 -1465140697489 1465140697362 -1465146543971 120 1465146543847 -1465140697341 1465140697403 -1465140692922 1465146539760 1465140700020 -123 1465140553069 -1465140700299 1465140700299 293 3971 -4206 -53 -1465146543944 1465146543971 171 1465146543767 -1465146539623 -29 -1465146539646 -3950 -74 1465146544107 73 -1465146543966 4437 -3965 1465146543784 -1465146543764 1465146544112 -1465146543897 209 1465146544134 -1465146543869 1465146543893 479 1465146541592 -1465146539474 1465146544166 1465146541836 -4310 1465146544165 -1465146441427 1465146440840 -5846452 -1465140594671 10798 1465146430304 855629994 1465140697154 5846724 -5846550 -1465140697420 1465140697569 -1465140692960 4006 -4013 -283 1465146544028 1465146539452 1465146543727 -1465146541712 1465146541733 -1465146539507 1465146539702 1465140697217 -1465140692753 -4010 1465140697183 -1465140697457 102667 325 1465140594610 5846563 -1465146440891 1465146440890 -1465146441478 305 -849783563 213 -1465140697282 1465140697177 -1465146544107 106837 -1465140692989 1465146539614 -1465146399418 -41656 -1465146546643 1465146546646 4326 -1465146544027 265 1465146543813 -1465146544097 2162 4384 -4304 1465146544027 49 71 -1465146544165 -1465146543948 79 1465146543988 2214 -245 1465146539724 -1465146543735 1465146544162 -1465146539473 -258 -4107 1465140697095 -88 1465140697545 5846615 -5846507 -1465140594760 1465146441318 -1465146543883 -5846529 5846579 -5846782 -1465140697022 -202 -189 306 -1465140594517 1465140594348 -1465140693085 -149 98582 1465996233344 -1498 -101600 1465996336138 -1465996336252 105366 1465146438846 849792090 -855638772 -1465140594268 -5846410 -180 270 5846587 1465140594516 -1465140583855 1465140583855 -1465140584778 925 -1465140584777 -57272 57276 -57276 1465140642053 1465140584780 1465146430292 -5846436 1465140584777 -1465140642052 1465140641776 -1465140584502 1465140584781 -57275 1465140641951 -1465140594361 -276 -1465140594266 -106 -31 -1465140594225 1465140594093 1465140594519 -125 5846704 -5846538 103 -1465116822502 1465122668973 -1465140583656 1465146430139 -5846581 -1465140592269 1465140592465 -54 5846436 -5846435 -1465140594488 1465146440924 849792114 -849792115 6 -1465146440930 1465146440930 -1465146441234 304 1465140594517 -1465140594455 -1465140592114 1465140592337 28 855638521 -1465996233344 1465140594795 5846439 -1465146438776 -4924 1465140597262 -1465140594492 1465140594268 220 855638549 -1465996235646 2606 -855638829 249 -75 -1465140594784 -3572 398 1465140594342 -1465140594795 1465146441230 -5846380 -1465140594543 -14360 12206 -242 5846706 5846564 -1465146440925 855638553 -855638549 -1465140594495 855638546 -1465140596874 4760 1465996230886 1465140594211 855638580 -855638655 -1465140594787 1465140594346 5846430 -1465146441230 307 -304 1465140594852 5846382 -1465996230886 1465140592114 -1465140606474 1465146453136 -1465146440924 1465140594218 242 5846464 -855638546 -133 -150 38 -1465140594801 1465146438776 -5846719 -855638597 54 -1465140594635 41 -453 3627 -3320 14360 -849792116 -5846427 855638543 1465140594501 -1465140594805 1465146441234 -855638542 -1465140592346 1465146443536 5846719 1465146440923 -5846423 -1465140594640 1465140594600 -1465140594753 -1465996233292 1465146441182 -1465146437610 -3174 1465140594314 55 1465146440926 -5846565 139 -1465140594500 -855638522 -1465140582785 1465140582816 5846412 1465140594820 -1465140594516 5846662 -2154 -1500 1465140596017 -1465140594821 236 -1465140592350 1465140592350 -1465140594507 1465140594504 5846426 855638533 1465140594515 -1465140596606 1465140596855 1465140594460 47 855638528 -855638531 5846421 -5846419 -1465140594815 -1465140596739 4625 5846470 -855638528 -279 -1465140590402 -65067 176 -1465140590680 1465140590678 -1465140594510 3832 1465140590675 -1465140590677 1465996229210 -1465996229207 -3862 168 -61326 61187 41931 -42403 11104 -10516 1465996232924 -1465996222409 -924 1465996214789 -1465996182522 1465146399172 10000 -5877 1465140590677 
Potential of Offsets elements: 28.5852 675.585 28.5852 28.5852 52.5852 28.5852 28.5852 28.5852 28.5852 958.585 442.585 28.5852 28.5852 28.5852 574.585 28.5852 28.5852 28.5852 28.5852 28.5852 28.5852 28.5852 28.5852 28.5852 28.5852 28.5852 28.5852 61.5852 28.5852 28.5852 470.585 1024.1 28.5852 28.5852 28.5852 28.5852 28.5852 28.5852 28.5852 28.5852 28.5852 28.5852 28.5852 28.5852 28.5852 28.5852 209.585 212.585 28.5852 28.5852 28.5852 28.5852 28.5852 199.585 28.5852 28.5852 302.585 28.5852 28.5852 545.585 28.5852 28.5852 75.5852 28.5852 28.5852 28.5852 28.5852 28.5852 28.5852 28.5852 28.5852 123.585 28.5852 28.5852 28.5852 28.5852 28.5852 28.5852 222.585 28.5852 28.5852 28.5852 703.585 557.585 28.5852 28.5852 28.5852 28.5852 28.5852 28.5852 28.5852 119.585 28.5852 28.5852 31.5852 28.5852 42.5852 44.5852 36.5852 28.5852 28.5852 28.5852 28.5852 28.5852 28.5852 28.5852 28.5852 28.5852 28.5852 28.5852 28.5852 28.5852 28.5852 447.585 28.5852 28.5852 28.5852 28.5852 28.5852 28.5852 28.5852 28.5852 28.5852 28.5852 928.585 28.5852 28.5852 28.5852 28.5852 28.5852 28.5852 28.5852 455.585 48.5852 34.5852 28.5852 28.5852 28.5852 28.5852 71.5852 56.5852 38.5852 28.5852 28.5852 32.5852 28.5852 28.5852 32.5852 29.5852 28.5852 28.5852 177.585 53.5852 28.5852 28.5852 28.5852 28.5852 62.5852 29.5852 28.5852 28.5852 28.5852 29.5852 28.5852 28.5852 28.5852 28.5852 28.5852 183.585 28.5852 28.5852 28.5852 28.5852 28.5852 28.5852 28.5852 28.5852 28.5852 32.5852 28.5852 28.5852 28.5852 28.5852 28.5852 28.5852 28.5852 195.585 77.5852 128.585 28.5852 28.5852 28.5852 29.5852 28.5852 28.5852 28.5852 84.5852 28.5852 28.5852 28.5852 28.5852 28.5852 29.5852 28.5852 28.5852 28.5852 28.5852 28.5852 62.5852 28.5852 28.5852 28.5852 28.5852 28.5852 28.5852 28.5852 28.5852 28.5852 28.5852 28.5852 28.5852 28.5852 28.5852 28.5852 28.5852 28.5852 32.5852 28.5852 782.585 28.5852 28.5852 28.5852 28.5852 28.5852 28.5852 28.5852 32.5852 28.5852 48.5852 28.5852 28.5852 28.5852 28.5852 28.5852 28.5852 28.5852 40.5852 31.5852 28.5852 28.5852 28.5852 28.5852 28.5852 28.5852 28.5852 28.5852 28.5852 28.5852 28.5852 28.5852 28.5852 28.5852 28.5852 28.5852 28.5852 28.5852 28.5852 28.5852 28.5852 556.585 496.585 28.5852 28.5852 28.5852 28.5852 28.5852 29.5852 166.585 28.5852 28.5852 239.585 266.585 28.5852 28.5852 28.5852 96.5852 28.5852 109.585 28.5852 28.5852 28.5852 28.5852 28.5852 28.5852 28.5852 28.5852 28.5852 28.5852 28.5852 28.5852 28.5852 28.5852 28.5852 28.5852 28.5852 28.5852 67.5852 28.5852 28.5852 28.5852 28.5852 28.5852 28.5852 28.5852 28.5852 28.5852 28.5852 28.5852 28.5852 28.5852 28.5852 28.5852 28.5852 28.5852 28.5852 28.5852 28.5852 28.5852 28.5852 28.5852 28.5852 28.5852 917.585 28.5852 28.5852 28.5852 28.5852 28.5852 28.5852 28.5852 179.585 28.5852 28.5852 28.5852 49.5852 28.5852 28.5852 28.5852 28.5852 28.5852 28.5852 28.5852 28.5852 28.5852 28.5852 28.5852 28.5852 459.585 28.5852 28.5852 28.5852 28.5852 28.5852 28.5852 28.5852 28.5852 28.5852 28.5852 28.5852 28.5852 28.5852 28.5852 28.5852 28.5852 39.5852 34.5852 28.5852 28.5852 28.5852 28.5852 62.5852 149.585 28.5852 28.5852 28.5852 28.5852 28.5852 28.5852 28.5852 28.5852 28.5852 28.5852 28.5852 28.5852 28.5852 28.5852 248.585 28.5852 28.5852 28.5852 28.5852 28.5852 28.5852 28.5852 28.5852 28.5852 28.5852 28.5852 28.5852 28.5852 28.5852 28.5852 28.5852 28.5852 28.5852 28.5852 28.5852 28.5852 28.5852 28.5852 28.5852 28.5852 28.5852 28.5852 28.5852 28.5852 28.5852 28.5852 28.5852 28.5852 28.5852 28.5852 28.5852 28.5852 28.5852 28.5852 28.5852 28.5852 28.5852 28.5852 28.5852 28.5852 34.5852 39.5852 28.5852 48.5852 28.5852 28.5852 28.5852 28.5852 28.5852 28.5852 58.5852 82.5852 28.5852 28.5852 28.5852 28.5852 28.5852 28.5852 31.5852 28.5852 28.5852 28.5852 28.5852 28.5852 52.5852 28.5852 28.5852 28.5852 28.5852 32.5852 28.5852 38.5852 32.5852 37.5852 28.5852 28.5852 28.5852 28.5852 28.5852 28.5852 28.5852 28.5852 28.5852 28.5852 28.5852 28.5852 28.5852 28.5852 28.5852 28.5852 28.5852 28.5852 28.5852 28.5852 28.5852 92.5852 28.5852 28.5852 28.5852 95.5852 59.5852 28.5852 28.5852 28.5852 28.5852 28.5852 51.5852 28.5852 28.5852 28.5852 28.5852 32.5852 28.5852 28.5852 28.5852 28.5852 28.5852 28.5852 28.5852 28.5852 28.5852 28.5852 28.5852 28.5852 28.5852 28.5852 28.5852 28.5852 28.5852 53.5852 28.5852 28.5852 28.5852 28.5852 28.5852 28.5852 28.5852 28.5852 29.5852 28.5852 28.5852 28.5852 28.5852 28.5852 30.5852 37.5852 28.5852 28.5852 28.5852 28.5852 28.5852 28.5852 28.5852 28.5852 94.5852 28.5852 29.5852 28.5852 28.5852 28.5852 81.5852 65.5852 28.5852 28.5852 32.5852 28.5852 28.5852 28.5852 28.5852 28.5852 93.5852 28.5852 32.5852 60.5852 50.5852 196.585 33.5852 33.5852 32.5852 28.5852 28.5852 28.5852 28.5852 28.5852 235.585 29.5852 34.5852 28.5852 28.5852 28.5852 28.5852 35.5852 90.5852 28.5852 28.5852 28.5852 28.5852 28.5852 28.5852 28.5852 28.5852 28.5852 28.5852 40.5852 63.5852 28.5852 32.5852 28.5852 28.5852 28.5852 28.5852 28.5852 49.5852 32.5852 127.585 37.5852 28.5852 29.5852 32.5852 28.5852 28.5852 204.585 28.5852 28.5852 28.5852 28.5852 28.5852 28.5852 140.585 28.5852 28.5852 28.5852 28.5852 28.5852 28.5852 28.5852 28.5852 28.5852 28.5852 28.5852 28.5852 28.5852 28.5852 28.5852 28.5852 28.5852 28.5852 28.5852 28.5852 28.5852 35.5852 32.5852 28.5852 28.5852 28.5852 32.5852 28.5852 28.5852 28.5852 28.5852 29.5852 28.5852 45.5852 39.5852 37.5852 28.5852 28.5852 28.5852 28.5852 172.585 53.5852 28.5852 28.5852 28.5852 176.585 28.5852 28.5852 28.5852 28.5852 28.5852 28.5852 28.5852 28.5852 28.5852 28.5852 28.5852 100.585 28.5852 28.5852 28.5852 28.5852 28.5852 28.5852 28.5852 28.5852 28.5852 28.5852 28.5852 28.5852 28.5852 28.5852 28.5852 28.5852 28.5852 28.5852 733.585 28.5852 28.5852 349.585 28.5852 28.5852 28.5852 28.5852 28.5852 28.5852 28.5852 28.5852 28.5852 28.5852 92.5852 136.585 124.585 37.5852 32.5852 28.5852 28.5852 28.5852 28.5852 28.5852 28.5852 28.5852 28.5852 33.5852 28.5852 28.5852 28.5852 28.5852 28.5852 28.5852 28.5852 28.5852 28.5852 28.5852 28.5852 28.5852 28.5852 28.5852 28.5852 28.5852 28.5852 28.5852 28.5852 28.5852 28.5852 945.585 28.5852 28.5852 1002.59 28.5852 28.5852 28.5852 28.5852 28.5852 28.5852 30.5852 114.585 28.5852 28.5852 28.5852 28.5852 28.5852 28.5852 28.5852 28.5852 31.5852 65.5852 28.5852 30.5852 40.5852 124.585 28.5852 28.5852 28.5852 28.5852 30.5852 34.5852 28.5852 42.5852 28.5852 28.5852 33.5852 28.5852 32.5852 28.5852 28.5852 28.5852 28.5852 28.5852 28.5852 28.5852 28.5852 28.5852 28.5852 28.5852 86.5852 28.5852 28.5852 28.5852 30.5852 28.5852 28.5852 28.5852 28.5852 28.5852 28.5852 28.5852 28.5852 200.585 28.5852 28.5852 28.5852 28.5852 28.5852 28.5852 28.5852 28.5852 28.5852 28.5852 28.5852 28.5852 28.5852 28.5852 28.5852 28.5852 28.5852 28.5852 28.5852 28.5852 28.5852 114.585 83.5852 78.5852 174.585 28.5852 28.5852 84.5852 28.5852 28.5852 28.5852 28.5852 28.5852 28.5852 34.5852 29.5852 36.5852 28.5852 28.5852 37.5852 28.5852 28.5852 28.5852 28.5852 28.5852 28.5852 28.5852 63.5852 28.5852 28.5852 76.5852 28.5852 28.5852 28.5852 28.5852 30.5852 29.5852 28.5852 28.5852 28.5852 168.585 28.5852 28.5852 87.5852 28.5852 28.5852 28.5852 28.5852 28.5852 30.5852 28.5852 328.585 28.5852 28.5852 28.5852 28.5852 28.5852 28.5852 28.5852 28.5852 28.5852 28.5852 28.5852 28.5852 28.5852 28.5852 28.5852 28.5852 28.5852 28.5852 80.5852 28.5852 54.5852 28.5852 28.5852 28.5852 28.5852 28.5852 28.5852 28.5852 28.5852 28.5852 28.5852 28.5852 28.5852 28.5852 28.5852 28.5852 28.5852 28.5852 28.5852 47.5852 139.585 28.5852 32.5852 28.5852 28.5852 28.5852 28.5852 28.5852 28.5852 28.5852 28.5852 28.5852 28.5852 35.5852 54.5852 136.585 33.5852 30.5852 42.5852 93.5852 28.5852 148.585 28.5852 28.5852 28.5852 28.5852 28.5852 28.5852 28.5852 28.5852 28.5852 28.5852 28.5852 28.5852 28.5852 28.5852 28.5852 35.5852 28.5852 28.5852 29.5852 28.5852 30.5852 28.5852 28.5852 28.5852 28.5852 28.5852 28.5852 28.5852 28.5852 28.5852 28.5852 116.585 28.5852 28.5852 28.5852 28.5852 28.5852 28.5852 28.5852 28.5852 28.5852 28.5852 28.5852 28.5852 28.5852 28.5852 28.5852 28.5852 28.5852 28.5852 945.011 28.5852 28.5852 28.5852 28.5852 28.5852 28.5852 28.5852 28.5852 49.5852 503.585 699.585 28.5852 28.5852 28.5852 28.5852 28.5852 28.5852 28.5852 28.5852 28.5852 28.5852 28.5852 28.5852 42.5852 28.5852 28.5852 28.5852 28.5852 28.5852 28.5852 74.5852 28.5852 28.5852 28.5852 28.5852 28.5852 130.585 28.5852 28.5852 28.5852 28.5852 28.5852 28.5852 28.5852 138.585 94.5852 40.5852 48.5852 28.5852 29.5852 80.5852 28.5852 37.5852 28.5852 28.5852 28.5852 28.5852 34.5852 28.5852 234.585 149.585 28.5852 28.5852 28.5852 28.5852 44.5852 28.5852 28.5852 28.5852 28.5852 28.5852 28.5852 28.5852 28.5852 28.5852 28.5852 28.5852 28.5852 28.5852 28.5852 28.5852 28.5852 48.5852 28.5852 28.5852 28.5852 28.5852 28.5852 28.5852 28.5852 28.5852 28.5852 28.5852 28.5852 28.5852 28.5852 28.5852 28.5852 28.5852 28.5852 37.5852 28.5852 28.5852 35.5852 28.5852 28.5852 28.5852 28.5852 28.5852 28.5852 28.5852 28.5852 28.5852 28.5852 28.5852 28.5852 28.5852 28.5852 28.5852 28.5852 28.5852 28.5852 28.5852 28.5852 28.5852 28.5852 28.5852 28.5852 28.5852 28.5852 28.5852 28.5852 28.5852 28.5852 28.5852 28.5852 28.5852 28.5852 28.5852 28.5852 28.5852 34.5852 28.5852 28.5852 28.5852 28.5852 33.5852 88.5852 395.585 28.5852 28.5852 28.5852 185.585 28.5852 56.5852 72.5852 28.5852 28.5852 28.5852 28.5852 28.5852 28.5852 28.5852 28.5852 28.5852 28.5852 28.5852 28.5852 34.5852 70.5852 28.5852 28.5852 28.5852 28.5852 28.5852 28.5852 28.5852 28.5852 28.5852 28.5852 28.5852 28.5852 28.5852 28.5852 391.585 31.5852 28.5852 28.5852 28.5852 28.5852 28.5852 28.5852 28.5852 28.5852 28.5852 28.5852 28.5852 28.5852 28.5852 28.5852 28.5852 28.5852 28.5852 28.5852 28.5852 28.5852 28.5852 28.5852 28.5852 28.5852 28.5852 28.5852 28.5852 28.5852 32.5852 28.5852 28.5852 28.5852 32.5852 28.5852 28.5852 28.5852 28.5852 28.5852 28.5852 28.5852 28.5852 28.5852 28.5852 28.5852 28.5852 28.5852 28.5852 28.5852 28.5852 28.5852 28.5852 28.5852 28.5852 28.5852 28.5852 28.5852 28.5852 28.5852 28.5852 28.5852 28.5852 28.5852 28.5852 32.5852 38.5852 70.5852 129.585 28.5852 28.5852 38.5852 28.5852 28.5852 28.5852 28.5852 28.5852 28.5852 28.5852 28.5852 28.5852 28.5852 36.5852 28.5852 28.5852 28.5852 28.5852 28.5852 28.5852 31.5852 28.5852 28.5852 28.5852 28.5852 28.5852 28.5852 28.5852 28.5852 28.5852 28.5852 28.5852 45.5852 68.5852 28.5852 28.5852 28.5852 28.5852 28.5852 28.5852 28.5852 145.585 28.5852 44.5852 28.5852 28.5852 28.5852 135.585 28.5852 28.5852 28.5852 28.5852 601.585 28.5852 28.5852 28.5852 28.5852 28.5852 28.5852 28.5852 28.5852 28.5852 28.5852 28.5852 28.5852 28.5852 28.5852 28.5852 122.585 98.5852 33.5852 28.5852 445.585 28.5852 28.5852 56.5852 28.5852 28.5852 28.5852 28.5852 28.5852 28.5852 32.5852 44.5852 28.5852 28.5852 28.5852 28.5852 28.5852 105.585 28.5852 28.5852 28.5852 28.5852 28.5852 28.5852 28.5852 28.5852 28.5852 28.5852 32.5852 28.5852 28.5852 51.5852 34.5852 34.5852 46.5852 38.5852 28.5852 44.5852 28.5852 28.5852 53.5852 28.5852 28.5852 28.5852 28.5852 28.5852 28.5852 28.5852 29.5852 28.5852 36.5852 28.5852 28.5852 28.5852 28.5852 28.5852 28.5852 28.5852 28.5852 28.5852 28.5852 28.5852 28.5852 28.5852 28.5852 28.5852 28.5852 28.5852 28.5852 28.5852 28.5852 28.5852 28.5852 28.5852 28.5852 28.5852 125.585 28.5852 28.5852 28.5852 28.5852 28.5852 28.5852 28.5852 28.5852 28.5852 28.5852 28.5852 28.5852 28.5852 28.5852 28.5852 28.5852 28.5852 28.5852 28.5852 29.5852 31.5852 28.5852 28.5852 28.5852 28.5852 28.5852 28.5852 30.5852 28.5852 42.5852 28.5852 28.5852 29.5852 28.5852 28.5852 28.5852 28.5852 28.5852 28.5852 28.5852 28.5852 28.5852 28.5852 28.5852 28.5852 28.5852 28.5852 28.5852 28.5852 28.5852 28.5852 28.5852 28.5852 28.5852 28.5852 28.5852 28.5852 38.5852 55.5852 28.5852 42.5852 70.5852 28.5852 30.5852 28.5852 64.5852 159.585 28.5852 41.5852 28.5852 28.5852 28.5852 28.5852 28.5852 28.5852 28.5852 28.5852 29.5852 28.5852 28.5852 28.5852 28.5852 28.5852 28.5852 32.5852 28.5852 28.5852 28.5852 28.5852 28.5852 28.5852 28.5852 28.5852 28.5852 28.5852 28.5852 28.5852 28.5852 32.5852 28.5852 28.5852 28.5852 48.5852 28.5852 28.5852 28.5852 28.5852 28.5852 28.5852 28.5852 28.5852 28.5852 28.5852 28.5852 28.5852 28.5852 28.5852 28.5852 28.5852 28.5852 28.5852 37.5852 28.5852 28.5852 28.5852 28.5852 28.5852 28.5852 28.5852 477.585 35.5852 31.5852 28.5852 28.5852 28.5852 28.5852 28.5852 33.5852 28.5852 28.5852 28.5852 28.5852 28.5852 28.5852 28.5852 28.5852 29.5852 28.5852 28.5852 28.5852 28.5852 28.5852 28.5852 28.5852 28.5852 28.5852 28.5852 28.5852 54.5852 618.585 28.5852 39.5852 56.5852 47.5852 45.5852 28.5852 28.5852 28.5852 28.5852 61.5852 33.5852 28.5852 28.5852 28.5852 100.585 28.5852 28.5852 28.5852 28.5852 28.5852 81.5852 28.5852 28.5852 28.5852 28.5852 28.5852 28.5852 28.5852 28.5852 28.5852 28.5852 34.5852 30.5852 28.5852 60.5852 28.5852 28.5852 40.5852 28.5852 28.5852 70.5852 28.5852 28.5852 31.5852 28.5852 42.5852 28.5852 28.5852 28.5852 28.5852 28.5852 28.5852 28.5852 29.5852 28.5852 28.5852 28.5852 28.5852 28.5852 28.5852 28.5852 28.5852 28.5852 28.5852 28.5852 28.5852 28.5852 28.5852 32.5852 28.5852 28.5852 28.5852 28.5852 28.5852 28.5852 28.5852 28.5852 28.5852 28.5852 31.5852 28.5852 28.5852 28.5852 28.5852 28.5852 28.5852 28.5852 28.5852 28.5852 28.5852 28.5852 28.5852 28.5852 28.5852 28.5852 28.5852 28.5852 28.5852 28.5852 28.5852 28.5852 28.5852 28.5852 28.5852 28.5852 28.5852 28.5852 28.5852 28.5852 28.5852 28.5852 28.5852 28.5852 28.5852 28.5852 28.5852 28.5852 28.5852 28.5852 43.5852 64.5852 29.5852 81.5852 78.5852 28.5852 43.5852 31.5852 28.5852 56.5852 28.5852 28.5852 28.5852 28.5852 31.5852 28.5852 28.5852 54.5852 28.5852 28.5852 65.5852 28.5852 60.5852 28.5852 28.5852 34.5852 30.5852 28.5852 28.5852 33.5852 28.5852 28.5852 28.5852 28.5852 28.5852 28.5852 28.5852 28.5852 29.5852 28.5852 28.5852 29.5852 28.5852 28.5852 28.5852 28.5852 28.5852 28.5852 28.5852 28.5852 28.5852 28.5852 28.5852 28.5852 30.5852 28.5852 28.5852 28.5852 28.5852 28.5852 28.5852 28.5852 28.5852 28.5852 28.5852 28.5852 29.5852 28.5852 28.5852 28.5852 28.5852 30.5852 28.5852 48.5852 200.585 28.5852 34.5852 234.585 38.5852 42.5852 28.5852 48.5852 28.5852 28.5852 28.5852 28.5852 28.5852 28.5852 28.5852 105.585 30.5852 28.5852 28.5852 28.5852 28.5852 28.5852 291.585 124.585 44.5852 28.5852 28.5852 28.5852 28.5852 28.5852 28.5852 167.585 28.5852 28.5852 28.5852 28.5852 28.5852 28.5852 28.5852 28.5852 28.5852 28.5852 28.5852 28.5852 28.5852 28.5852 35.5852 108.585 28.5852 28.5852 30.5852 28.5852 28.5852 28.5852 28.5852 28.5852 28.5852 28.5852 30.5852 28.5852 28.5852 28.5852 28.5852 28.5852 28.5852 28.5852 28.5852 28.5852 220.585 28.5852 28.5852 28.5852 28.5852 28.5852 28.5852 28.5852 28.5852 33.5852 28.5852 28.5852 28.5852 28.5852 28.5852 28.5852 28.5852 28.5852 28.5852 28.5852 28.5852 28.5852 45.5852 38.5852 28.5852 28.5852 28.5852 28.5852 76.5852 35.5852 42.5852 28.5852 28.5852 28.5852 28.5852 98.5852 136.585 28.5852 41.5852 48.5852 28.5852 172.585 28.5852 28.5852 28.5852 28.5852 28.5852 28.5852 28.5852 28.5852 28.5852 31.5852 28.5852 28.5852 28.5852 64.5852 46.5852 28.5852 28.5852 28.5852 28.5852 28.5852 28.5852 28.5852 28.5852 28.5852 28.5852 28.5852 28.5852 28.5852 28.5852 28.5852 28.5852 28.5852 28.5852 28.5852 28.5852 28.5852 28.5852 28.5852 28.5852 28.5852 29.5852 28.5852 28.5852 28.5852 28.5852 28.5852 28.5852 28.5852 28.5852 28.5852 28.5852 28.5852 28.5852 28.5852 28.5852 28.5852 28.5852 58.5852 28.5852 28.5852 28.5852 180.585 28.5852 36.5852 28.5852 28.5852 28.5852 28.5852 28.5852 28.5852 28.5852 28.5852 28.5852 28.5852 28.5852 28.5852 28.5852 28.5852 28.5852 
rewards of Offsets elements: 0 647 0 0 24 0 0 0 0 930 414 0 0 0 546 0 0 0 0 0 0 0 0 0 0 0 0 33 0 0 442 1024 0 0 0 0 0 0 0 0 0 0 0 0 0 0 181 184 0 0 0 0 0 171 0 0 274 0 0 517 0 0 47 0 0 0 0 0 0 0 0 95 0 0 0 0 0 0 194 0 0 0 675 529 0 0 0 0 0 0 0 91 0 0 3 0 14 16 8 0 0 0 0 0 0 0 0 0 0 0 0 0 0 419 0 0 0 0 0 0 0 0 0 0 900 0 0 0 0 0 0 0 427 20 6 0 0 0 0 43 28 10 0 0 4 0 0 4 1 0 0 149 25 0 0 0 0 34 1 0 0 0 1 0 0 0 0 0 155 0 0 0 0 0 0 0 0 0 4 0 0 0 0 0 0 0 167 49 100 0 0 0 1 0 0 0 56 0 0 0 0 0 1 0 0 0 0 0 34 0 0 0 0 0 0 0 0 0 0 0 0 0 0 0 0 0 4 0 754 0 0 0 0 0 0 0 4 0 20 0 0 0 0 0 0 0 12 3 0 0 0 0 0 0 0 0 0 0 0 0 0 0 0 0 0 0 0 0 0 528 468 0 0 0 0 0 1 138 0 0 211 238 0 0 0 68 0 81 0 0 0 0 0 0 0 0 0 0 0 0 0 0 0 0 0 0 39 0 0 0 0 0 0 0 0 0 0 0 0 0 0 0 0 0 0 0 0 0 0 0 0 0 889 0 0 0 0 0 0 0 151 0 0 0 21 0 0 0 0 0 0 0 0 0 0 0 0 431 0 0 0 0 0 0 0 0 0 0 0 0 0 0 0 0 11 6 0 0 0 0 34 121 0 0 0 0 0 0 0 0 0 0 0 0 0 0 220 0 0 0 0 0 0 0 0 0 0 0 0 0 0 0 0 0 0 0 0 0 0 0 0 0 0 0 0 0 0 0 0 0 0 0 0 0 0 0 0 0 0 0 0 0 6 11 0 20 0 0 0 0 0 0 30 54 0 0 0 0 0 0 3 0 0 0 0 0 24 0 0 0 0 4 0 10 4 9 0 0 0 0 0 0 0 0 0 0 0 0 0 0 0 0 0 0 0 0 0 64 0 0 0 67 31 0 0 0 0 0 23 0 0 0 0 4 0 0 0 0 0 0 0 0 0 0 0 0 0 0 0 0 0 25 0 0 0 0 0 0 0 0 1 0 0 0 0 0 2 9 0 0 0 0 0 0 0 0 66 0 1 0 0 0 53 37 0 0 4 0 0 0 0 0 65 0 4 32 22 168 5 5 4 0 0 0 0 0 207 1 6 0 0 0 0 7 62 0 0 0 0 0 0 0 0 0 0 12 35 0 4 0 0 0 0 0 21 4 99 9 0 1 4 0 0 176 0 0 0 0 0 0 112 0 0 0 0 0 0 0 0 0 0 0 0 0 0 0 0 0 0 0 0 0 7 4 0 0 0 4 0 0 0 0 1 0 17 11 9 0 0 0 0 144 25 0 0 0 148 0 0 0 0 0 0 0 0 0 0 0 72 0 0 0 0 0 0 0 0 0 0 0 0 0 0 0 0 0 0 705 0 0 321 0 0 0 0 0 0 0 0 0 0 64 108 96 9 4 0 0 0 0 0 0 0 0 5 0 0 0 0 0 0 0 0 0 0 0 0 0 0 0 0 0 0 0 0 0 917 0 0 974 0 0 0 0 0 0 2 86 0 0 0 0 0 0 0 0 3 37 0 2 12 96 0 0 0 0 2 6 0 14 0 0 5 0 4 0 0 0 0 0 0 0 0 0 0 0 58 0 0 0 2 0 0 0 0 0 0 0 0 172 0 0 0 0 0 0 0 0 0 0 0 0 0 0 0 0 0 0 0 0 0 86 55 50 146 0 0 56 0 0 0 0 0 0 6 1 8 0 0 9 0 0 0 0 0 0 0 35 0 0 48 0 0 0 0 2 1 0 0 0 140 0 0 59 0 0 0 0 0 2 0 300 0 0 0 0 0 0 0 0 0 0 0 0 0 0 0 0 0 0 52 0 26 0 0 0 0 0 0 0 0 0 0 0 0 0 0 0 0 0 0 19 111 0 4 0 0 0 0 0 0 0 0 0 0 7 26 108 5 2 14 65 0 120 0 0 0 0 0 0 0 0 0 0 0 0 0 0 0 7 0 0 1 0 2 0 0 0 0 0 0 0 0 0 0 88 0 0 0 0 0 0 0 0 0 0 0 0 0 0 0 0 0 0 943 0 0 0 0 0 0 0 0 21 475 671 0 0 0 0 0 0 0 0 0 0 0 0 14 0 0 0 0 0 0 46 0 0 0 0 0 102 0 0 0 0 0 0 0 110 66 12 20 0 1 52 0 9 0 0 0 0 6 0 206 121 0 0 0 0 16 0 0 0 0 0 0 0 0 0 0 0 0 0 0 0 0 20 0 0 0 0 0 0 0 0 0 0 0 0 0 0 0 0 0 9 0 0 7 0 0 0 0 0 0 0 0 0 0 0 0 0 0 0 0 0 0 0 0 0 0 0 0 0 0 0 0 0 0 0 0 0 0 0 0 0 6 0 0 0 0 5 60 367 0 0 0 157 0 28 44 0 0 0 0 0 0 0 0 0 0 0 0 6 42 0 0 0 0 0 0 0 0 0 0 0 0 0 0 363 3 0 0 0 0 0 0 0 0 0 0 0 0 0 0 0 0 0 0 0 0 0 0 0 0 0 0 0 0 4 0 0 0 4 0 0 0 0 0 0 0 0 0 0 0 0 0 0 0 0 0 0 0 0 0 0 0 0 0 0 0 0 0 0 4 10 42 101 0 0 10 0 0 0 0 0 0 0 0 0 0 8 0 0 0 0 0 0 3 0 0 0 0 0 0 0 0 0 0 0 17 40 0 0 0 0 0 0 0 117 0 16 0 0 0 107 0 0 0 0 573 0 0 0 0 0 0 0 0 0 0 0 0 0 0 0 94 70 5 0 417 0 0 28 0 0 0 0 0 0 4 16 0 0 0 0 0 77 0 0 0 0 0 0 0 0 0 0 4 0 0 23 6 6 18 10 0 16 0 0 25 0 0 0 0 0 0 0 1 0 8 0 0 0 0 0 0 0 0 0 0 0 0 0 0 0 0 0 0 0 0 0 0 0 0 0 97 0 0 0 0 0 0 0 0 0 0 0 0 0 0 0 0 0 0 0 1 3 0 0 0 0 0 0 2 0 14 0 0 1 0 0 0 0 0 0 0 0 0 0 0 0 0 0 0 0 0 0 0 0 0 0 0 0 10 27 0 14 42 0 2 0 36 131 0 13 0 0 0 0 0 0 0 0 1 0 0 0 0 0 0 4 0 0 0 0 0 0 0 0 0 0 0 0 0 4 0 0 0 20 0 0 0 0 0 0 0 0 0 0 0 0 0 0 0 0 0 0 9 0 0 0 0 0 0 0 449 7 3 0 0 0 0 0 5 0 0 0 0 0 0 0 0 1 0 0 0 0 0 0 0 0 0 0 0 26 590 0 11 28 19 17 0 0 0 0 33 5 0 0 0 72 0 0 0 0 0 53 0 0 0 0 0 0 0 0 0 0 6 2 0 32 0 0 12 0 0 42 0 0 3 0 14 0 0 0 0 0 0 0 1 0 0 0 0 0 0 0 0 0 0 0 0 0 0 4 0 0 0 0 0 0 0 0 0 0 3 0 0 0 0 0 0 0 0 0 0 0 0 0 0 0 0 0 0 0 0 0 0 0 0 0 0 0 0 0 0 0 0 0 0 0 0 0 0 0 15 36 1 53 50 0 15 3 0 28 0 0 0 0 3 0 0 26 0 0 37 0 32 0 0 6 2 0 0 5 0 0 0 0 0 0 0 0 1 0 0 1 0 0 0 0 0 0 0 0 0 0 0 0 2 0 0 0 0 0 0 0 0 0 0 0 1 0 0 0 0 2 0 20 172 0 6 206 10 14 0 20 0 0 0 0 0 0 0 77 2 0 0 0 0 0 263 96 16 0 0 0 0 0 0 139 0 0 0 0 0 0 0 0 0 0 0 0 0 0 7 80 0 0 2 0 0 0 0 0 0 0 2 0 0 0 0 0 0 0 0 0 192 0 0 0 0 0 0 0 0 5 0 0 0 0 0 0 0 0 0 0 0 0 17 10 0 0 0 0 48 7 14 0 0 0 0 70 108 0 13 20 0 144 0 0 0 0 0 0 0 0 0 3 0 0 0 36 18 0 0 0 0 0 0 0 0 0 0 0 0 0 0 0 0 0 0 0 0 0 0 0 0 0 1 0 0 0 0 0 0 0 0 0 0 0 0 0 0 0 0 30 0 0 0 152 0 8 0 0 0 0 0 0 0 0 0 0 0 0 0 0 0 Printing Sanity3
offset_index value1949
offset list size1949
reward size1949
potential size1949
-----------------------------------------------------------------------------------------------------------------------------------------------------------------------------------------------------

DRAM Statistics
 CHANNEL 0
 RQ ROW_BUFFER_HIT:      45424  ROW_BUFFER_MISS:     138345
 DBUS_CONGESTED:        141
 WQ ROW_BUFFER_HIT:      13333  ROW_BUFFER_MISS:      80456  FULL:          0

 AVG_CONGESTED_CYCLE: 5
 All warmup complete: 2
Channel 0 Bank busy for read cycles: 0
Channel 0 Bank busy for write cycles: 0
Channel 0
Rank 0
0banks busy for read cycles: 601670474
0banks busy for write cycles: 45532
1banks busy for read cycles: 9869903
1banks busy for write cycles: 5865574
2banks busy for read cycles: 3952458
2banks busy for write cycles: 2066871
3banks busy for read cycles: 647381
3banks busy for write cycles: 706573
4banks busy for read cycles: 314283
4banks busy for write cycles: 293579
5banks busy for read cycles: 58339
5banks busy for write cycles: 117371
6banks busy for read cycles: 52387
6banks busy for write cycles: 54302
7banks busy for read cycles: 60809
7banks busy for write cycles: 50594
8banks busy for read cycles: 136985
8banks busy for write cycles: 245347

CPU 0 Branch Prediction Accuracy: 99.8256% MPKI: 0.309945 Average ROB Occupancy at Mispredict: 40.5292
Branch types
NOT_BRANCH: 164461168 82.2306%
BRANCH_DIRECT_JUMP: 2604773 1.30239%
BRANCH_INDIRECT: 12507392 6.2537%
BRANCH_CONDITIONAL: 12340417 6.17021%
BRANCH_DIRECT_CALL: 3088472 1.54424%
BRANCH_INDIRECT_CALL: 954646 0.477323%
BRANCH_RETURN: 4043103 2.02155%
BRANCH_OTHER: 0 0%

DRAM PAGES: 1048576
Allocated PAGES: 4280
