
*** ChampSim Multicore Out-of-Order Simulator ***

Warmup Instructions: 50000000
Simulation Instructions: 200000000
Number of CPUs: 1
LLC sets: 2048
LLC ways: 16
Off-chip DRAM Size: 4096 MB Channels: 1 Width: 64-bit Data Rate: 6400 MT/s
CPU 0 runs traces/spec2k17/srv_38.champsimtrace.xz
.xz
BTB has LRU replacement policy
ITLB has LRU replacement policy
DTLB has LRU replacement policy
STLB has LRU replacement policy
L1I has LRU replacement policy
L1D has LRU replacement policy
Initialize SRRIP state for L2C
Initialize DRRIP state for LLC
Offsets elements: 
Potential of Offsets elements: 
rewards of Offsets elements: 
Printing Sanity1
offset list size1635
Offsets elements: 
Potential of Offsets elements: 
rewards of Offsets elements: 761 179 498 0 0 0 0 0 0 427 286 0 0 0 569 0 751 0 319 0 0 0 0 0 0 0 0 0 166 0 450 0 0 474 0 0 0 0 0 0 0 346 323 512 0 0 0 0 0 0 6 0 0 0 0 0 0 0 0 0 0 548 0 0 0 0 2 0 0 0 0 0 0 0 6 0 314 2 0 0 0 0 0 0 0 0 0 0 0 0 0 15 0 8 0 0 0 0 0 8 0 6 0 0 0 0 0 2 0 0 0 0 0 0 0 1 0 6 0 18 2 0 0 0 0 0 0 0 16 0 0 0 0 0 0 0 0 0 0 7 0 0 92 0 16 4 79 11 120 18 8 10 30 77 212 4 15 0 150 7 10 0 48 90 0 0 9 50 173 2 0 0 0 0 0 98 40 2 12 0 8 0 0 0 0 0 0 0 0 0 246 170 1 0 0 205 98 174 30 112 24 27 0 0 0 0 0 0 0 24 11 1 0 20 0 0 0 0 0 0 0 0 0 0 0 0 0 0 0 0 0 0 0 0 0 0 0 0 421 0 0 0 0 0 0 0 0 0 0 0 21 0 0 0 54 19 797 0 0 261 0 0 364 0 0 0 0 0 0 0 0 0 0 0 0 0 0 0 0 0 0 0 0 0 0 0 0 0 0 0 0 0 0 0 0 0 0 0 0 0 0 0 0 0 0 0 0 56 0 0 0 0 212 0 0 42 0 0 0 0 0 0 0 0 0 6 0 11 0 99 0 14 0 0 30 20 3 60 0 0 0 0 0 0 0 0 0 0 6 0 0 0 0 0 0 0 0 0 0 2 0 6 0 60 0 0 4 0 48 0 0 0 36 32 0 0 0 0 0 0 0 24 0 0 0 0 0 0 0 0 0 0 0 0 0 0 0 0 0 0 0 0 0 0 0 0 0 0 0 630 0 0 0 0 0 0 0 0 0 0 0 0 0 0 0 0 0 0 0 0 0 0 0 0 0 440 0 0 0 0 0 2 0 0 0 0 0 0 0 20 0 3 0 0 0 1 0 0 6 0 0 0 0 10 0 891 0 0 0 0 0 0 0 9 36 47 132 9 12 54 209 65 22 1 0 0 0 0 6 101 0 0 12 84 14 34 55 10 0 0 10 4 0 0 0 0 2 0 0 0 0 0 0 0 0 0 0 0 0 0 0 1 0 5 0 0 6 0 0 0 0 0 0 0 0 0 0 0 0 0 0 5 0 0 0 0 0 0 0 5 0 0 0 0 0 0 0 22 0 0 42 0 4 0 50 414 0 0 0 0 0 0 0 0 0 0 0 0 471 0 0 0 0 0 0 40 0 0 0 0 0 0 0 0 11 0 3 12 2 0 0 0 4 0 0 0 0 0 42 0 0 0 0 0 0 0 0 0 0 3 0 0 0 0 0 0 0 8 0 0 0 0 4 0 0 0 0 45 0 0 0 0 40 0 0 0 0 0 0 0 0 0 0 0 27 0 0 15 0 0 0 3 117 136 8 12 0 3 32 0 0 0 0 0 0 39 44 112 0 9 30 3 0 0 0 0 0 0 0 12 24 4 0 0 0 2 91 9 0 166 15 20 0 42 0 0 0 0 4 0 5 0 0 0 0 22 0 0 0 0 0 0 0 0 0 0 0 0 0 0 0 0 0 0 0 0 0 0 0 0 0 0 0 0 0 104 0 0 0 0 0 0 0 0 0 0 0 0 0 0 0 0 0 0 0 0 0 0 0 0 0 0 0 0 0 0 0 0 0 0 0 0 0 0 0 0 5 0 0 0 0 0 0 0 0 0 0 0 0 0 0 0 0 0 0 0 42 10 0 50 84 0 0 0 54 0 0 0 0 0 39 0 42 0 0 0 0 0 0 0 0 1 80 0 24 0 0 0 0 18 0 0 0 5 36 25 45 56 0 4 28 0 0 1 0 0 0 0 0 36 0 0 24 0 7 3 0 22 0 26 15 0 375 0 124 166 16 0 0 12 0 20 12 0 0 0 0 1 0 0 0 0 0 0 0 0 0 0 9 3 0 0 0 0 0 2 0 0 0 0 0 0 0 0 0 0 0 0 0 0 0 0 0 0 0 0 0 0 0 0 0 2 0 0 0 0 0 0 0 0 0 0 0 0 0 0 2 0 0 0 10 0 0 15 0 0 1 0 0 0 0 0 50 0 0 0 0 3 8 0 0 0 0 0 0 2 0 0 0 0 0 0 0 0 0 0 0 17 0 5 0 0 0 0 0 0 0 0 0 0 0 0 0 0 2 0 0 0 0 2 0 0 0 26 0 0 0 125 0 0 4 0 0 0 0 0 0 24 0 0 15 65 27 22 0 0 18 59 0 45 0 0 0 0 7 56 0 64 14 0 0 0 0 0 0 0 0 0 0 0 0 0 0 0 0 0 0 0 0 0 0 0 0 0 0 0 0 0 0 0 0 0 0 0 0 0 0 0 0 0 0 0 0 0 0 0 0 0 0 0 0 0 0 0 0 0 0 0 0 0 0 0 0 0 0 0 10 0 0 0 0 0 0 0 0 324 0 0 0 0 0 0 0 0 0 0 0 0 0 0 0 0 0 24 5 0 0 0 44 0 0 45 0 0 24 26 0 0 46 0 12 0 0 0 0 0 0 57 0 0 0 0 40 0 0 100 8 27 0 0 24 0 4 4 0 8 0 0 0 0 0 0 18 0 8 0 0 0 0 0 0 0 112 0 12 0 17 0 0 0 50 16 165 0 0 0 0 0 0 0 0 0 0 6 0 0 0 0 0 0 0 0 0 0 0 0 0 0 0 31 0 0 0 0 23 0 0 0 0 0 0 0 0 0 0 2 0 0 0 0 0 0 0 0 0 0 0 0 0 0 0 0 0 18 3 0 0 0 0 7 0 0 0 0 0 0 0 0 0 0 439 37 0 0 0 0 0 0 0 0 0 0 6 15 1 0 7 0 0 0 0 0 0 0 0 0 7 0 0 0 0 0 0 0 0 0 0 0 0 27 0 4 0 0 20 0 0 0 0 0 0 0 0 0 0 0 0 0 0 0 0 0 0 0 0 0 113 0 0 0 133 0 42 227 0 0 0 0 0 257 0 0 0 0 0 0 0 0 0 0 0 0 0 0 0 0 0 0 0 0 0 0 0 0 0 0 0 0 0 0 0 0 0 0 0 0 0 0 0 0 0 0 0 0 0 0 0 0 0 0 0 0 0 0 0 0 0 0 30 5 0 0 0 0 34 0 0 0 0 0 0 0 0 0 0 0 0 0 0 0 19 0 0 0 0 0 0 0 0 0 0 0 0 0 0 0 0 0 0 0 0 0 0 0 0 0 0 4 2 190 0 2 0 0 0 60 0 0 0 6 0 0 0 0 0 0 0 0 0 0 0 0 0 0 10 0 12 0 3 0 6 0 9 0 0 0 0 0 8 0 0 0 0 58 0 0 0 0 9 0 0 3 0 0 0 0 0 0 33 3 0 0 0 0 0 0 0 0 0 0 0 0 0 0 0 0 0 0 0 0 0 0 0 0 0 0 0 0 0 0 0 0 0 0 0 0 0 0 0 0 0 0 0 0 0 0 0 0 0 0 0 0 0 0 0 0 0 0 0 0 0 0 0 0 0 0 0 0 0 0 0 0 0 0 0 0 0 0 0 0 6 0 0 0 0 6 0 0 0 0 0 0 16 0 0 
Printing Sanity2
Heartbeat CPU 0 instructions: 10000003 cycles: 2955288 heartbeat IPC: 3.38377 cumulative IPC: 3.38377 (Simulation time: 0 hr 0 min 24 sec) 
Heartbeat CPU 0 instructions: 20000002 cycles: 5931191 heartbeat IPC: 3.36032 cumulative IPC: 3.372 (Simulation time: 0 hr 0 min 47 sec) 
Heartbeat CPU 0 instructions: 30000000 cycles: 8912799 heartbeat IPC: 3.35389 cumulative IPC: 3.36595 (Simulation time: 0 hr 1 min 11 sec) 
*** Reached end of trace for Core: 0 Repeating trace: traces/spec2k17/srv_38.champsimtrace.xz
Heartbeat CPU 0 instructions: 40000003 cycles: 11894526 heartbeat IPC: 3.35376 cumulative IPC: 3.36289 (Simulation time: 0 hr 1 min 34 sec) 
Heartbeat CPU 0 instructions: 50000002 cycles: 14868914 heartbeat IPC: 3.36204 cumulative IPC: 3.36272 (Simulation time: 0 hr 1 min 58 sec) 

Warmup complete CPU 0 instructions: 50000002 cycles: 14868914 (Simulation time: 0 hr 1 min 58 sec) 

Heartbeat CPU 0 instructions: 60000000 cycles: 35792579 heartbeat IPC: 0.477928 cumulative IPC: 0.477928 (Simulation time: 0 hr 2 min 41 sec) 
*** Reached end of trace for Core: 0 Repeating trace: traces/spec2k17/srv_38.champsimtrace.xz
Heartbeat CPU 0 instructions: 70000002 cycles: 56549453 heartbeat IPC: 0.481768 cumulative IPC: 0.47984 (Simulation time: 0 hr 3 min 26 sec) 
Heartbeat CPU 0 instructions: 80000000 cycles: 76973384 heartbeat IPC: 0.489622 cumulative IPC: 0.483057 (Simulation time: 0 hr 4 min 9 sec) 
Heartbeat CPU 0 instructions: 90000003 cycles: 96732882 heartbeat IPC: 0.506086 cumulative IPC: 0.488615 (Simulation time: 0 hr 4 min 50 sec) 
*** Reached end of trace for Core: 0 Repeating trace: traces/spec2k17/srv_38.champsimtrace.xz
Heartbeat CPU 0 instructions: 100000002 cycles: 116572104 heartbeat IPC: 0.504052 cumulative IPC: 0.491627 (Simulation time: 0 hr 5 min 32 sec) 
Heartbeat CPU 0 instructions: 110000000 cycles: 136360722 heartbeat IPC: 0.505341 cumulative IPC: 0.49386 (Simulation time: 0 hr 6 min 14 sec) 
Heartbeat CPU 0 instructions: 120000000 cycles: 156079243 heartbeat IPC: 0.507137 cumulative IPC: 0.495714 (Simulation time: 0 hr 6 min 56 sec) 
*** Reached end of trace for Core: 0 Repeating trace: traces/spec2k17/srv_38.champsimtrace.xz
Heartbeat CPU 0 instructions: 130000003 cycles: 175924426 heartbeat IPC: 0.503901 cumulative IPC: 0.496723 (Simulation time: 0 hr 7 min 38 sec) 
Heartbeat CPU 0 instructions: 140000001 cycles: 195618993 heartbeat IPC: 0.507754 cumulative IPC: 0.497925 (Simulation time: 0 hr 8 min 19 sec) 
Heartbeat CPU 0 instructions: 150000000 cycles: 215315953 heartbeat IPC: 0.507693 cumulative IPC: 0.498885 (Simulation time: 0 hr 9 min 1 sec) 
Heartbeat CPU 0 instructions: 160000002 cycles: 235124875 heartbeat IPC: 0.504823 cumulative IPC: 0.499419 (Simulation time: 0 hr 9 min 43 sec) 
*** Reached end of trace for Core: 0 Repeating trace: traces/spec2k17/srv_38.champsimtrace.xz
Heartbeat CPU 0 instructions: 170000000 cycles: 254873769 heartbeat IPC: 0.506357 cumulative IPC: 0.49999 (Simulation time: 0 hr 10 min 24 sec) 
Heartbeat CPU 0 instructions: 180000000 cycles: 274626363 heartbeat IPC: 0.506263 cumulative IPC: 0.500467 (Simulation time: 0 hr 11 min 6 sec) 
Heartbeat CPU 0 instructions: 190000000 cycles: 294358779 heartbeat IPC: 0.50678 cumulative IPC: 0.500913 (Simulation time: 0 hr 11 min 48 sec) 
*** Reached end of trace for Core: 0 Repeating trace: traces/spec2k17/srv_38.champsimtrace.xz
Heartbeat CPU 0 instructions: 200000000 cycles: 314108336 heartbeat IPC: 0.50634 cumulative IPC: 0.501271 (Simulation time: 0 hr 12 min 30 sec) 
Heartbeat CPU 0 instructions: 210000003 cycles: 333830885 heartbeat IPC: 0.507034 cumulative IPC: 0.501627 (Simulation time: 0 hr 13 min 12 sec) 
Heartbeat CPU 0 instructions: 220000000 cycles: 353529272 heartbeat IPC: 0.507656 cumulative IPC: 0.501978 (Simulation time: 0 hr 13 min 53 sec) 
*** Reached end of trace for Core: 0 Repeating trace: traces/spec2k17/srv_38.champsimtrace.xz
Heartbeat CPU 0 instructions: 230000001 cycles: 373237318 heartbeat IPC: 0.507407 cumulative IPC: 0.502276 (Simulation time: 0 hr 14 min 35 sec) 
Heartbeat CPU 0 instructions: 240000003 cycles: 392989400 heartbeat IPC: 0.506276 cumulative IPC: 0.502485 (Simulation time: 0 hr 15 min 17 sec) 
Heartbeat CPU 0 instructions: 250000002 cycles: 412726859 heartbeat IPC: 0.506651 cumulative IPC: 0.502692 (Simulation time: 0 hr 15 min 59 sec) 
Finished CPU 0 instructions: 200000000 cycles: 397857945 cumulative IPC: 0.502692 (Simulation time: 0 hr 15 min 59 sec) 

ChampSim completed all CPUs

Region of Interest Statistics

CPU 0 cumulative IPC: 0.502692 instructions: 200000000 cycles: 397857945
ITLB TOTAL     ACCESS:   33766471  HIT:   32242332  MISS:    1524139  HIT %:    95.4862  MISS %:    4.51376   MPKI: 7.6207
ITLB LOAD TRANSLATION ACCESS:   33766471  HIT:   32242332  MISS:    1524139  HIT %:    95.4862  MISS %:    4.51376   MPKI: 7.6207
ITLB PREFETCH  REQUESTED:          0  ISSUED:          0  USEFUL:          0  USELESS:          0
ITLB USEFUL LOAD PREFETCHES:          0 PREFETCH ISSUED TO LOWER LEVEL:          0  ACCURACY: -nan
ITLB TIMELY PREFETCHES:          0 LATE PREFETCHES: 0 DROPPED PREFETCHES: 0
ITLB PREFETCHES SAME FILL-ORIGIN LEVEL: 0 DIFFERENT FILL-ORIGIN LEVEL: 0
ITLB AVERAGE MISS LATENCY: 9.21018 cycles
ITLB RQ	ACCESS:   40626037	FORWARD:          0	MERGED:    6367169	TO_CACHE:   34258868

DTLB TOTAL     ACCESS:   39958412  HIT:   38467975  MISS:    1490437  HIT %:      96.27  MISS %:    3.72997   MPKI: 7.45219
DTLB LOAD TRANSLATION ACCESS:   39958412  HIT:   38467975  MISS:    1490437  HIT %:      96.27  MISS %:    3.72997   MPKI: 7.45219
DTLB PREFETCH  REQUESTED:          0  ISSUED:          0  USEFUL:          0  USELESS:          0
DTLB USEFUL LOAD PREFETCHES:          0 PREFETCH ISSUED TO LOWER LEVEL:          0  ACCURACY: -nan
DTLB TIMELY PREFETCHES:          0 LATE PREFETCHES: 0 DROPPED PREFETCHES: 0
DTLB PREFETCHES SAME FILL-ORIGIN LEVEL: 0 DIFFERENT FILL-ORIGIN LEVEL: 0
DTLB AVERAGE MISS LATENCY: 13.614 cycles
DTLB RQ	ACCESS:   61034423	FORWARD:          0	MERGED:   20684103	TO_CACHE:   40350320

STLB TOTAL     ACCESS:   21235040  HIT:   21159535  MISS:      75505  HIT %:    99.6444  MISS %:   0.355568   MPKI: 0.377525
STLB LOAD TRANSLATION ACCESS:    3014575  HIT:    2941980  MISS:      72595  HIT %:    97.5919  MISS %:    2.40813   MPKI: 0.362975
STLB TRANSLATION FROM L1D PREFETCHER ACCESS:   18220465  HIT:   18217555  MISS:       2910  HIT %:     99.984  MISS %:  0.0159711   MPKI: 0.01455
STLB PREFETCH  REQUESTED:          0  ISSUED:          0  USEFUL:       2756  USELESS:        152
STLB USEFUL LOAD PREFETCHES:       2756 PREFETCH ISSUED TO LOWER LEVEL:          0  ACCURACY: inf
STLB TIMELY PREFETCHES:       2756 LATE PREFETCHES: 6 DROPPED PREFETCHES: 1579911
STLB PREFETCHES SAME FILL-ORIGIN LEVEL: 0 DIFFERENT FILL-ORIGIN LEVEL: 0
STLB AVERAGE MISS LATENCY: 97.7222 cycles
STLB RQ	ACCESS:   28496872	FORWARD:          0	MERGED:    5552487	TO_CACHE:   22944385

STLB Hit, L1D data hit: 0
STLB Hit, L2C data hit: 0
STLB Hit, LLC data hit: 0
STLB Hit, LLC data miss: 0
STLB STLB hints to L2: 0
L1D TOTAL     ACCESS:   72508263  HIT:   63843982  MISS:    8664281  HIT %:    88.0506  MISS %:    11.9494   MPKI: 43.3214
L1D LOAD      ACCESS:   26645132  HIT:   23467853  MISS:    3177279  HIT %:    88.0756  MISS %:    11.9244   MPKI: 15.8864
L1D RFO       ACCESS:   22521933  HIT:   18850582  MISS:    3671351  HIT %:    83.6988  MISS %:    16.3012   MPKI: 18.3568
L1D PREFETCH  ACCESS:   23341198  HIT:   21525547  MISS:    1815651  HIT %:    92.2213  MISS %:    7.77874   MPKI: 9.07826
AGUS PREFETCH L1 MISS: 0
L1D PREFETCH  REQUESTED:   52587838  ISSUED:   52585058  USEFUL:     274237  USELESS:    1541546
L1D USEFUL LOAD PREFETCHES:     274237 PREFETCH ISSUED TO LOWER LEVEL:    1819820  ACCURACY: 15.0695
L1D TIMELY PREFETCHES:     274237 LATE PREFETCHES: 3197 DROPPED PREFETCHES: 1932160
L1D PREFETCHES SAME FILL-ORIGIN LEVEL: 1819820 DIFFERENT FILL-ORIGIN LEVEL: 0
L1D AVERAGE MISS LATENCY: 102039 cycles
L1D RQ	ACCESS:   45190332	FORWARD:          0	MERGED:   17811736	TO_CACHE:   27105541
L1D WQ	ACCESS:   34120710	FORWARD:     288351	MERGED:     191828	TO_CACHE:   33928882
L1D PQ	ACCESS:   27102761	FORWARD:          0	MERGED:    1605168	TO_CACHE:   25482297

L1D UNIQUE REGIONS ACCESSED: 0
L1D REGIONS CONFLICTS: 0
L1D Cross Page Prefetch Requests: 4294485
L1D Same Page Prefetch Requests: 28318366
L1D ROI Sum of L1D PQ occupancy: 413220598
L1D PREFETCHES PUSHED FROM L2C: 0
L1I TOTAL     ACCESS:   38004821  HIT:   29003780  MISS:    9001041  HIT %:    76.3161  MISS %:    23.6839   MPKI: 45.0052
L1I LOAD      ACCESS:   38004821  HIT:   29003780  MISS:    9001041  HIT %:    76.3161  MISS %:    23.6839   MPKI: 45.0052
L1I PREFETCH  REQUESTED:          0  ISSUED:          0  USEFUL:          0  USELESS:          0
L1I USEFUL LOAD PREFETCHES:          0 PREFETCH ISSUED TO LOWER LEVEL:          0  ACCURACY: -nan
L1I TIMELY PREFETCHES:          0 LATE PREFETCHES: 0 DROPPED PREFETCHES: 0
L1I PREFETCHES SAME FILL-ORIGIN LEVEL: 0 DIFFERENT FILL-ORIGIN LEVEL: 0
L1I AVERAGE MISS LATENCY: 16.6061 cycles
L1I RQ	ACCESS:   58976707	FORWARD:          0	MERGED:   18350670	TO_CACHE:   40626037

BTB TOTAL     ACCESS:   25785311  HIT:   24238558  MISS:    1546753  HIT %:    94.0014  MISS %:    5.99858   MPKI: 7.73377
BTB BRANCH_DIRECT_JUMP	ACCESS:    1652265  HIT:    1642591  MISS:       9674
BTB BRANCH_INDIRECT	ACCESS:    9950809  HIT:    9430281  MISS:     520528
BTB BRANCH_CONDITIONAL	ACCESS:    7377327  HIT:    7363709  MISS:      13618
BTB BRANCH_DIRECT_CALL	ACCESS:    2809804  HIT:    2776206  MISS:      33598
BTB BRANCH_INDIRECT_CALL	ACCESS:     592726  HIT:     482250  MISS:     110476
BTB BRANCH_RETURN	ACCESS:    3402380  HIT:    2543521  MISS:     858859
BTB BRANCH_OTHER ACCESS:          0  HIT:          0  MISS:          0

L2C TOTAL     ACCESS:   24290522  HIT:   16901842  MISS:    7388680  HIT %:     69.582  MISS %:     30.418   MPKI: 36.9434
L2C LOAD      ACCESS:   12173631  HIT:    9510860  MISS:    2662771  HIT %:    78.1267  MISS %:    21.8733   MPKI: 13.3139
L2C DATA LOAD MPKI: 10.3311
L2C INSTRUCTION LOAD MPKI: 2.98272
L2C RFO       ACCESS:    3670326  HIT:     119891  MISS:    3550435  HIT %:    3.26649  MISS %:    96.7335   MPKI: 17.7522
L2C PREFETCH  ACCESS:    1819809  HIT:     804112  MISS:    1015697  HIT %:    44.1866  MISS %:    55.8134   MPKI: 5.07848
AGUS PREFETCH L1 MISS: 0
L2C DATA PREFETCH MPKI: 5.07848
L2C INSTRUCTION PREFETCH MPKI: 0
L2C WRITEBACK ACCESS:    4428251  HIT:    4329011  MISS:      99240  HIT %:    97.7589  MISS %:    2.24107   MPKI: 0.4962
L2C LOAD TRANSLATION ACCESS:      77564  HIT:      46734  MISS:      30830  HIT %:    60.2522  MISS %:    39.7478   MPKI: 0.15415
L2C TRANSLATION FROM L1D PREFETCHER ACCESS:    2120941  HIT:    2091234  MISS:      29707  HIT %:    98.5993  MISS %:    1.40065   MPKI: 0.148535
L2C PREFETCH  REQUESTED:          0  ISSUED:          0  USEFUL:     118155  USELESS:     928489
L2C USEFUL LOAD PREFETCHES:     118155 PREFETCH ISSUED TO LOWER LEVEL:    1015697  ACCURACY: 11.6329
L2C TIMELY PREFETCHES:     118155 LATE PREFETCHES: 0 DROPPED PREFETCHES: 0
L2C PREFETCHES SAME FILL-ORIGIN LEVEL: 0 DIFFERENT FILL-ORIGIN LEVEL: 0
L2C AVERAGE MISS LATENCY: 151.105 cycles
L2C RQ	ACCESS:   18044013	FORWARD:          0	MERGED:          0	TO_CACHE:   18042469
L2C WQ	ACCESS:    4428251	FORWARD:       1555	MERGED:          0	TO_CACHE:    4428251
L2C PQ	ACCESS:    1819820	FORWARD:          0	MERGED:          0	TO_CACHE:    1819809

L2C Instructions Evicting Data 551389
L2C Translations Evicting Data 55272
L2C Data Evicting Data 6034624
L2C Instructions Evicting Instructions 39848
L2C Translations Evicting Instructions 4888
L2C Data Evicting Instructions 543762
L2C Instructions Evicting Translations 5307
L2C Translations Evicting Translations 377
L2C Data Evicting Translations 53973
L2C Dense regions hint from L2: 0
PSCL5 TOTAL     ACCESS:    1655416  HIT:    1655416  MISS:          0  HIT %:        100  MISS %:          0   MPKI: 0
PSCL5 LOAD TRANSLATION ACCESS:      72589  HIT:      72589  MISS:          0  HIT %:        100  MISS %:          0   MPKI: 0
PSCL5 TRANSLATION FROM L1D PREFETCHER ACCESS:    1582827  HIT:    1582827  MISS:          0  HIT %:        100  MISS %:          0   MPKI: 0
PSCL5 PREFETCH  REQUESTED:          0  ISSUED:          0  USEFUL:          0  USELESS:          0
PSCL5 USEFUL LOAD PREFETCHES:          0 PREFETCH ISSUED TO LOWER LEVEL:          0  ACCURACY: -nan
PSCL5 TIMELY PREFETCHES:          0 LATE PREFETCHES: 0 DROPPED PREFETCHES: 0
PSCL5 PREFETCHES SAME FILL-ORIGIN LEVEL: 0 DIFFERENT FILL-ORIGIN LEVEL: 0

PSCL4 TOTAL     ACCESS:    1614964  HIT:    1614805  MISS:        159  HIT %:    99.9902  MISS %: 0.00984542   MPKI: 0.000795
PSCL4 LOAD TRANSLATION ACCESS:      71116  HIT:      70957  MISS:        159  HIT %:    99.7764  MISS %:   0.223578   MPKI: 0.000795
PSCL4 TRANSLATION FROM L1D PREFETCHER ACCESS:    1543848  HIT:    1543848  MISS:          0  HIT %:        100  MISS %:          0   MPKI: 0
PSCL4 PREFETCH  REQUESTED:          0  ISSUED:          0  USEFUL:          0  USELESS:          0
PSCL4 USEFUL LOAD PREFETCHES:          0 PREFETCH ISSUED TO LOWER LEVEL:          0  ACCURACY: -nan
PSCL4 TIMELY PREFETCHES:          0 LATE PREFETCHES: 0 DROPPED PREFETCHES: 0
PSCL4 PREFETCHES SAME FILL-ORIGIN LEVEL: 0 DIFFERENT FILL-ORIGIN LEVEL: 0

PSCL3 TOTAL     ACCESS:    1644976  HIT:    1644817  MISS:        159  HIT %:    99.9903  MISS %: 0.00966579   MPKI: 0.000795
PSCL3 LOAD TRANSLATION ACCESS:      71754  HIT:      71595  MISS:        159  HIT %:    99.7784  MISS %:    0.22159   MPKI: 0.000795
PSCL3 TRANSLATION FROM L1D PREFETCHER ACCESS:    1573222  HIT:    1573222  MISS:          0  HIT %:        100  MISS %:          0   MPKI: 0
PSCL3 PREFETCH  REQUESTED:          0  ISSUED:          0  USEFUL:          0  USELESS:          0
PSCL3 USEFUL LOAD PREFETCHES:          0 PREFETCH ISSUED TO LOWER LEVEL:          0  ACCURACY: -nan
PSCL3 TIMELY PREFETCHES:          0 LATE PREFETCHES: 0 DROPPED PREFETCHES: 0
PSCL3 PREFETCHES SAME FILL-ORIGIN LEVEL: 0 DIFFERENT FILL-ORIGIN LEVEL: 0

PSCL2 TOTAL     ACCESS:    1041183  HIT:    1036419  MISS:       4764  HIT %:    99.5424  MISS %:   0.457556   MPKI: 0.02382
PSCL2 LOAD TRANSLATION ACCESS:      72670  HIT:      67906  MISS:       4764  HIT %:    93.4443  MISS %:    6.55566   MPKI: 0.02382
PSCL2 TRANSLATION FROM L1D PREFETCHER ACCESS:     968513  HIT:     968513  MISS:          0  HIT %:        100  MISS %:          0   MPKI: 0
PSCL2 PREFETCH  REQUESTED:          0  ISSUED:          0  USEFUL:          0  USELESS:          0
PSCL2 USEFUL LOAD PREFETCHES:          0 PREFETCH ISSUED TO LOWER LEVEL:          0  ACCURACY: -nan
PSCL2 TIMELY PREFETCHES:          0 LATE PREFETCHES: 0 DROPPED PREFETCHES: 0
PSCL2 PREFETCHES SAME FILL-ORIGIN LEVEL: 0 DIFFERENT FILL-ORIGIN LEVEL: 0

LLC TOTAL     ACCESS:   11380763  HIT:    5119536  MISS:    6261227  HIT %:    44.9841  MISS %:    55.0159   MPKI: 31.3061
LLC LOAD      ACCESS:    2662771  HIT:    1457525  MISS:    1205246  HIT %:    54.7372  MISS %:    45.2628   MPKI: 6.02623
LLC RFO       ACCESS:    3550390  HIT:     900435  MISS:    2649955  HIT %:    25.3616  MISS %:    74.6384   MPKI: 13.2498
LLC PREFETCH  ACCESS:    1015696  HIT:     840584  MISS:     175112  HIT %:    82.7594  MISS %:    17.2406   MPKI: 0.87556
AGUS PREFETCH L1 MISS: 0
LLC WRITEBACK ACCESS:    4091369  HIT:    1881960  MISS:    2209409  HIT %:    45.9983  MISS %:    54.0017   MPKI: 11.047
LLC LOAD TRANSLATION ACCESS:      30830  HIT:      11707  MISS:      19123  HIT %:    37.9728  MISS %:    62.0272   MPKI: 0.095615
LLC TRANSLATION FROM L1D PREFETCHER ACCESS:      29707  HIT:      27325  MISS:       2382  HIT %:    91.9817  MISS %:    8.01831   MPKI: 0.01191
LLC PREFETCH  REQUESTED:          0  ISSUED:          0  USEFUL:       5492  USELESS:     172905
LLC USEFUL LOAD PREFETCHES:       5492 PREFETCH ISSUED TO LOWER LEVEL:     175112  ACCURACY: 3.13628
LLC TIMELY PREFETCHES:       5492 LATE PREFETCHES: 0 DROPPED PREFETCHES: 0
LLC PREFETCHES SAME FILL-ORIGIN LEVEL: 0 DIFFERENT FILL-ORIGIN LEVEL: 0
LLC AVERAGE MISS LATENCY: 143.386 cycles
LLC RQ	ACCESS:    6273749	FORWARD:          0	MERGED:          0	TO_CACHE:    6273703
LLC WQ	ACCESS:    4091369	FORWARD:         47	MERGED:          0	TO_CACHE:    4091369
LLC PQ	ACCESS:    1015697	FORWARD:          0	MERGED:          0	TO_CACHE:    1015696

LLC Dense regions hint to LLC: 0

RAW hits: 2382045
Loads Generated: 47572377
Loads sent to L1D: 45190332
Stores Generated: 34120710
Stores sent to L1D: 34120710
Major fault: 0 Minor fault: 8128
Allocated PAGES: 8128
ucb ended
-----------------------------------------------------------------------------------------------------------------------------------------------------------------------------------------------------
Offsets elements: 1 16 4 -70357 49782 -49782 49783 59788 -59810 -2 -8 -49777 59813 -59813 2 46377 -1 -46480 -7 20571 -2200619129319 2200619058963 70336 25 -70362 57824 -57825 70356 -20 -70338 3 25591 44745 -3 -70335 109597 -109595 49780 20568 -2200619104764 2200619104754 10 6 -4 -44763 44744 -2200619104746 2200619104751 10374596 -10395151 -2200619077826 2200619077829 -8979 -12703182 -37907 37907 -37898 12750060 -8981 -15216 24198 5 -1216975 1216975 -8982 -15189 -288223780699110141 18880338 -19492068 22398 -22400 22400 -1465996015944 1466015485613 -1466015485612 408 -14 -386 1465995993545 -1465995993547 1465996015945 -1465996015566 1465995993168 618594 -596194 -1465996015945 1465996612139 -618593 -1465995993519 1465996015919 -1465995993210 -332 1466015485606 -1466015483813 -1489 1465996479895 -1465996480196 1794 1465996603501 -1465996605295 -1465996604963 -1757 1425 -1462 1465996480200 19005407 -19004385 -1465996482646 1465995994967 -1465995993542 1465996478406 -1465996478403 -1501 1465996480926 -1465996481218 1465996512964 92327 1465996604963 -1465996606690 -30 1465996482647 -1465996480890 1465996480971 -81 19004385 -18880311 18880311 -1466015485273 -1794 -1466015485301 1489 1466015483813 -19005407 -486658 -1465995994967 1465995994966 -1465996015919 -1465995993246 -292 328 1465996606690 -1465996606720 30 81 -1465996480971 1465996480890 -18880310 18880310 -1466015485274 1466015485301 -27000800 -1465988486231 1466015487031 -1466015485609 8 363 1466015485239 -19492065 1757 1465996480891 1465996481349 -1465996479555 -1466015485300 1797 1465996014147 19469666 -1466015485302 -300 17 346 1465995993174 486659 -486660 -1465996017366 1465996017366 -19004383 -1465996480889 -1466015483811 -3215 1726 1465996480934 -1465996480934 1465996015936 466092 -466092 -7891582 7891582 -1465996017368 1465996017368 19469540 -1466015485603 -36 -1691 64 19004321 -1466015485605 332 -27 -308 1466015485610 -1466015483812 1466015483814 -1466015485239 -22399 -7803648 8307916 -1465996499235 1441 1465996583423 18902169 -1466015485613 1465988487937 8124202 -1465996611767 1465996604928 -8117363 -1465988490659 2756 1465996490408 -1465996490428 1465996583558 -1465996583320 1465996583222 -4102 25925 8091436 -8091436 8002506 88930 -1465996579120 1465996490189 -1465996490422 21857 8095636 -93131 88931 -73563 -8190 -11 -9213 90979 -1465996579122 18902168 -26997674 8000456 18997219 -18988003 107691 -494848 -1465995993544 35 1465996583537 -590026 -1465995993546 371 37 -6 1465996578975 -1465996578985 28 -410 -1465996611760 20 -381 1465995993529 500992 88918 28682 -28337 23376 18878432 -19492063 -1465995993510 1465995993509 504269 -8304677 -1465988193138 1465988193138 8419001 -8419001 -38441 -1465988154697 1466015485609 -18873470 18873469 -19492062 19492063 -18987794 18987794 -618594 19492062 -18980798 -14359 14358 2021 -16381 -1465996490195 1465996506577 -1465996506796 1465996506796 -16382 -1465996490194 1465996490194 16382 -4768814 -1465991737993 1465991766854 -90 4740043 -4740043 4740044 -4740044 18978775 -23718729 4723571 1465996506576 -1969331 -1465994537476 1465994537476 1969331 1969332 -1969332 20948107 -20948106 1952949 18995158 -18978776 -1465996509451 2921 1465996605291 19004380 -18880305 -123992 1466015485296 -27000795 1430 1465996506821 -18980797 -14360 1465988487738 -1465988487957 1465988487957 8002458 -8002457 -1465988487737 1465991737762 28861 -1465991766764 1465988487968 3278796 -3278796 23718817 -23718727 2770622 1465988487737 6049508 -6049508 20948105 -20948104 -1465996490149 19004379 -18880304 18880305 -1466015485268 1466015485599 -1466015485294 1466015483806 -18995156 -8005639 3253206 23747589 -1466015487026 1466015487027 -18995157 1466015485352 -27292468 -1465988193137 -1466015485198 1465988192729 8311671 -1465996506577 -219 -3250024 8018838 -8018839 -1465988487968 1465996506807 8018839 8018840 -8018840 26997615 -16380 18995157 -1465996504809 1465996490455 121684 18873468 -1466015485606 398 1465995993146 511264 -1465996504808 -1465996611730 -409 -18873468 -1465996612131 404 -412 -618592 7 1465996494648 -1465996494271 -78 -19004297 123992 18880306 27000795 -18991065 -1465996495961 -19492059 501097 -5198 -1465996489442 1465996488410 18997189 -18997188 -494867 -1465995993552 -1465996612139 -18873469 -1465996612121 1465996583439 345 4962 -1465996611740 -16 1465995993164 -1465995993543 375 1465995993134 -1465995993545 386 1465996494549 -1465996494163 1465995993159 1465995993508 511263 395 -395 1466015485608 -1466015485231 -377 -1465996611737 1465996494137 -1465996494539 1466015485607 400 -401 1466015485612 -1466015485227 1465996611754 18873471 -1466015485610 1466015485611 407 -5 1466015485210 -18873473 -117597 -500996 1465996497778 -8009877 -1465988487601 1465988484501 -1465988484802 -1429 1465996606720 1465988484474 -1465988484806 -1425 1462 1465996481221 19004386 1466015483810 -19492066 -7508736 8013005 15157 -31746 25604 -1465996506494 1465996479896 -1465996480197 1465996605295 -125094 -1465996478407 -3219 1799 1465995991744 19492067 -19005408 -1465996479826 1465996497436 -504270 19492069 -18972641 -31745 -8288089 7822807 347368 19122299 -19492069 1465996448460 -79876 -5293 -1465996363263 1465996285228 320017 -307730 307730 -17806 288223780709547535 -10419615 -2200619201325 2200619201348 -72119 72119 86986 9304 -9304 -24197 14893 -12687934 12687935 -2200619091946 2200619091945 -12702485 12711787 -12697233 12687931 -1207666 1216967 -2200619181876 2200619181877 9303 -12697240 12673048 14892 2200614722453 4468727 -9301 9302 -12697244 -2200606493680 2200606493680 12660026 -2200619046985 2200619060004 -13020 13020 10419340 -2200619077823 2200619077822 -37210 22 21 -12953 50142 -50142 50143 58924 -58946 -50143 50145 58947 -12673 -46377 -37193 9 -2200619071560 2200619071555 -12952 12932 -12934 25952 32233 -58184 96164 -2200619143145 2200619047004 12930 37210 -37196 13001 -2200619046982 2200619046987 24187 10395152 -2200619077825 2200619077827 -9303 -14866 24170 -12711790 12702485 -12687940 11480265 1216972 -24198 24203 -288223780699134316 -19200356 12288 -12286 -1465996285258 1465996285256 -1465996284848 1465996297136 -1465996297544 -1466015485226 -394 379 1465996284880 -1465996285231 1465996612113 -314594 -12288 -1465996284922 -1465996603501 1465996479868 -1465996480200 3219 1465996479427 -1465996481221 1465996511171 1465996285250 -1465996284958 36 1465996480889 -1465996482616 1466015485302 -1466015487032 -1465996479428 1465996283460 196049 -196050 -1465996297519 1465996297519 182659 -182659 -1465996298966 1465996286678 -19004303 -1465996481303 300 1465996297236 -1465996295747 -346 1465996285232 -7812735 1465996298966 1465996482616 305 -1422 1465996482648 -1465996479429 1465996479555 -1465996481344 1466015485602 -19200353 194948 -182660 -1447 -1465996297173 1465996297173 -19004384 124074 -1421 1465996482660 -1465996479445 1466015483812 -19003572 -1465996481728 1465996297536 -8173179 8173179 -1465996298965 1465996298965 19187940 -1466015485310 -1395 1465996481285 19004322 -1465996284948 -8107647 -1465988189898 -18873472 -1465996613560 -1465996285237 -19 1465996583071 18880312 -19200355 1465996583572 -85808 114374 1465988487565 -1465988487903 -2756 1465996493165 1465996490427 -8002505 8091438 -8095538 26997673 -18995167 1465996605280 8095506 -93001 -1465988487917 1465996579353 4071 -8095506 8117363 -1465996605047 1465996583320 -4200 18906238 -18979801 18979801 -18987991 -90982 -18997219 -8000456 7797320 294118 -1465996579373 1465996579367 -1465996579367 -406 1465996285258 212350 -1465996497208 -397 347 -32 1465996611740 1465996285241 298543 -89263 112639 -23720 -326881 -1465996285222 1465996285221 212507 -8304627 -19200350 19200351 -27330784 8130432 326882 -18987845 7044 107330 -121689 -1465996490414 -4768380 -1465991738427 1465990132917 6373890 -6373890 6373891 -6373891 6357509 25352666 25352667 -18978777 -1465996506530 -2921 1465996509451 -1465996506822 1466015485269 -18880306 -124074 1727 -1465996481222 1465996479509 -1465996480998 -1466015485596 -27000796 8019999 -1465996506230 1465996491869 -1465996490196 1465988487960 8002455 -8002454 1465988487740 3250456 -1465990132640 1465990132640 -1465990132932 1465990132604 6472359 1465996480970 -80 -1465988484501 1466015485295 -1465996491869 1465996491870 18995156 -23747156 -1465991738197 1465996490195 -1466015485353 1465988192884 -1465988192729 1465996504400 -1465996490415 1465996490414 -1465996490425 230 1465996506578 1465991738196 -3250455 8018836 -8018836 8018837 -8018837 26997613 -18980799 -1465996612138 -1465996284858 1465996504410 -1466015485598 1465996285259 -1465996284847 1465996611727 299 1465996494254 -1465996494218 42 -370 -1399 1466015486996 1465996481222 -1465996479427 1465996479508 19004299 -1466015485296 1466015485297 -18996155 5089 -209281 -7800448 8003609 6135 -1465996494545 -1430 1465996286685 203155 18997188 -1466015485592 1465996612121 -18902151 -1465996583457 1465996583802 28337 -4961 -1466015485210 -380 -1465996285257 -1465996285221 -24 -18 -378 209293 117600 -1465996612102 1466015485573 -18980801 18980802 401 1465996284851 326881 -1465996611738 -385 1465996494542 -1465996494506 1465996612103 -1465996611803 1465996284921 -1465996285254 1465996497761 -1465996495967 1465988486139 -1465988487628 -301 1465988484802 -1466015485275 -195968 -1465996283457 1465988484806 8012955 1465996514393 -6142 -25604 -1465996480917 1465996480201 -1020 -1465996478404 1465996283456 227714 16538 -212508 19200355 -27292474 27292475 -19200354 -1465996285260 380 1465996284878 -1465996285256 -19122321 -65747 19188071 -19037155 -79875 -1465996368557 1465996587440 17806 -241965 288223780709771694 -288223780699723764 288223780699723763 -288223780699701364 288221580080500039 87258 -15169 15168 -2200619092221 2200619092222 -12741095 12741094 -12703061 -38030 12750117 -9027 9028 -1192774 1207943 9025 -2200619191179 2200606441058 -2200606440796 2200614722197 4488913 -44385 -2200619060004 2200619104388 10374956 -2200629472974 2200619098016 -70161 70164 -20214 -49950 49951 59852 -59874 -49945 59875 -13704 -46274 -2200619108744 2200619128955 -70164 70144 -70146 70171 -70170 25760 -57993 70143 -2200619104388 2200619034244 70158 -70159 70159 -70158 49948 20200 39663 -84070 44403 -2200619104386 2200619104391 2200619077823 -9026 -12703062 -38039 38039 12712089 -24169 24169 -12750120 12741091 9030 -24171 -1216972 1207942 9035 -288223780680253978 -18880338 -613650 19471589 -22 1465995991625 -1465995991248 1465996611760 1465996014025 -22398 620512 -620513 -1465995991625 598114 -1465996612113 1465995991600 -1465995991290 301 -305 -1465996478406 -3222 -489600 -1465995991618 292 19004384 -1465996481625 1730 1465995991317 -1465995991599 1465996013999 -1465995991617 -1465996604999 -1727 19004304 1422 -363 1465996014016 19471586 -19471586 -1465996013999 -1465995991326 -1465996480891 1465996481017 -126 1465996478407 -1465996481626 63 1465996013653 -1465996014016 1465995991617 -18880309 -1466015485604 1466015485274 -1465996012227 794 -468012 -7889660 7889660 -1465996015446 1465996015446 19471460 -1466015485311 1466015487001 -1465996481285 308 -309 -19493985 -1465995991253 1465988189526 8422241 -1465995991626 1465996499226 114334 -1465996612119 1465988487917 -1465996605299 -18902040 -1465996583201 -3094 1465988490659 -88930 -1465996490408 1465996579341 -1465996579360 1465996583460 -1465996583222 1465988487684 114858 -1465996605280 -1465996583190 1465996579120 25928 -114858 93131 -1465996583553 8017873 73563 -81753 18997217 -18902038 -8095636 9216 18988003 -1466015485611 18997218 -19493986 587746 -1465996579338 343 -32771 1465996494521 -1465996583430 -15 1465996606767 -1465996612103 1465995991589 1465996497806 114333 1465988154953 7836673 620513 -114333 -1465996497806 -620514 513184 -1465996504775 -1465996506578 1465991744368 -1465991744696 -18978775 -1465996506797 1465996504775 -8016812 8002451 1465996490196 -1465996490148 1465991746125 -1465991744368 19004378 -123993 -1465996480970 1465988483012 -1466015487025 -23740902 -1465991744451 -1466015485352 -1466015485573 -231 1465991744681 -3256705 8018833 -8018833 8018834 -8018834 18978776 1465995991226 -1465995991624 1465995991626 513183 409 1465996494627 -1465996494634 1465996612138 -1465996611839 76 -1803 1769 1465996604921 -19004380 -18991066 -8009730 8004641 -1465996490872 1465996489840 -496792 -1465995991623 6216 -503003 -1465995991632 -18873471 -1466015485590 -1465996606778 1465995991243 1465995991624 620514 1465995991239 502923 -502925 -1465995991589 1465996504808 -1465996504413 402 1465995991627 -400 1465995991224 506179 -8009868 1466015487032 1466015485303 27 1465995989824 489599 8012996 -1465996496008 521346 16579 -506181 19493987 -1465995991628 1466015485614 -1466015485234 -19493988 371685 -1465996363281 18880341 -434436 354561 -5283 288223780709771701 -288223780709825299 288223780699405683 -288223780699710964 288221580080509639 87147 -15057 15056 -12741122 12741123 -2200619092109 2200606389259 12711989 -9140 -2200619182043 2200619182040 -12741119 11533292 24196 -12750267 12741131 9138 8281541 -2200614722197 -256 2200619204381 -37394 2200619097400 10381944 2200619091028 -13222 13206 -63109 49903 59340 -59362 -49897 109268 -59365 46068 -46171 2200619121967 -63128 63108 -63110 63135 -63134 57945 -32234 -25711 63127 63107 -63108 -2200619097400 2200619034292 49902 59367 -109267 63120 -10 -37415 37396 -2200619097398 2200619097403 -9138 -12702851 -38278 12750269 -9141 12750261 1216977 -24203 24202 -9146 9143 -24173 24174 -19175908 -305280 305282 -1465996309706 1465996309704 -1465996309296 1465996004038 -1465996004424 -1466015485218 -1465996309707 1465996004425 -1465996004046 -302432 -1465996309705 607714 -302433 -1465996309679 1465996004399 305280 -305281 -1465996004089 3222 1465996479425 31746 -203266 -1465996309698 -283 1465996309680 170499 -475779 -1465996005846 1465996005846 -1465996309406 1465996004053 305281 -1465996309696 1465996004416 -1465996004399 -1465996004125 -1465996004053 170500 -475780 1466015483811 -1726 288223780709652967 -288223780707591023 -1465988125783 288225246695716841 -13 -2200619223542 2200619100628 98723 13 -98725 18332 104575 -104574 104576 -104576 -18320 98714 14 10421095 -2200629502966 2200619001462 -18331 122903 -4468105 -2200614683070 2200619081026 48144 22005 10397380 -10322369 -179582 34423 10418922 -10501488 80410 10421078 -2200629462410 2200619065490 -2200619108548 70 2200619108474 12303868 -12303866 12303828 -12303829 12303867 -12303867 12303804 -1906429 1906455 -12303830 12303809 -3756553481 3744249668 12303815 -3756553482 3754647049 -10397377 12303805 -10397380 12303831 -1906455 -10397375 10397376 -3754647049 3754647048 -3754647048 3756553477 -1906877 1906877 -1906863 1906864 -10397379 -1906428 -2200619065484 -24154 24155 -24155 -80415 -3744145111 3744126791 98729 24160 -2200619106031 2200614637919 -2200614640233 2200619108343 -4468109 4468113 -3744249680 -2196874901492 2200619151175 -104572 82567 97016 -179583 -3744127007 3744231579 -24179 -3744225505 -2196874858867 2200631412426 -1906509 -10397370 10397370 -10501938 -3744145112 3744145111 104568 -3744249683 3739781578 14865484 -14865484 14865485 -14865485 4468101 10397385 -14865486 14865486 -10397386 -104568 3754646603 -3754646603 3744249681 -3744231578 3744231578 -24175 -35 24194 -24172 -98732 122905 -24196 -288225246695739582 19481060 1465996480952 -1465996481284 -27295713 -1465988189526 1465996309334 -1465996311126 19481187 1465996309706 302433 1465996497767 85656 -1465988487936 -2723 1465996608022 -1465988487565 1465996583201 -93130 -88933 -1465988487684 1465996490190 -1465996579352 -15368 7178 -1465996497367 -233 130 -95177 9213 -8009672 116907 95180 18906243 -1465996497573 1465996309669 -1465996309704 -1465996309304 -402 382 1465996309707 -1465996309328 1465996494538 -1465996494140 -297471 19175905 -1466015485575 1465996497787 114352 -8419000 -38058 -1465988155081 -19175902 18873470 -18987823 -1465996497787 -302434 195104 -4764822 -1465991741985 1465990130775 6376033 -6376033 -6376034 6376034 25354809 -25354808 6359650 16383 -1465996506807 231 1465990699193 5807384 -5807383 -5807385 5791003 -24786161 5807385 -24786160 24786161 80 -1466015485297 1465996504500 1465996506822 1465988487967 8002448 1465988487747 3254007 -1611210 -1465990130774 1465988487978 1642796 -1642796 568649 5791001 -8002447 2211445 -1465990699423 -2211445 5791002 -328 18880304 -1466015485267 -1465996481302 -1465996490140 -23743598 -1465991741755 27000796 1465996490447 18995159 -1466015487028 1830 -155 1465988192885 8311670 -8297309 -1465988192886 -4748440 4764822 -8018828 8018828 -8018829 -1465988487978 8018829 8018830 -8018830 26997605 1465996309306 184897 -1465996494603 377 1466015487026 -19004378 124073 -19004299 8009730 18991066 -1466015487027 -1032 -178712 -1465996309703 1465996494595 -6185 -178707 -1465996309712 -28682 1465996309324 33 410 1465996309294 
Potential of Offsets elements: 789.256 207.256 526.256 28.2564 28.2564 28.2564 28.2564 28.2564 28.2564 455.256 314.256 28.2564 28.2564 28.2564 597.256 28.2564 779.256 28.2564 347.256 28.2564 28.2564 28.2564 28.2564 28.2564 28.2564 28.2564 28.2564 28.2564 194.256 28.2564 478.256 28.2564 28.2564 502.256 28.2564 28.2564 28.2564 28.2564 28.2564 28.2564 28.2564 374.256 351.256 540.256 28.2564 28.2564 28.2564 28.2564 28.2564 28.2564 34.2564 28.2564 28.2564 28.2564 28.2564 28.2564 28.2564 28.2564 28.2564 28.2564 28.2564 576.256 28.2564 28.2564 28.2564 28.2564 30.2564 28.2564 28.2564 28.2564 28.2564 28.2564 28.2564 28.2564 34.2564 28.2564 342.256 30.2564 28.2564 28.2564 28.2564 28.2564 28.2564 28.2564 28.2564 28.2564 28.2564 28.2564 28.2564 28.2564 28.2564 43.2564 28.2564 36.2564 28.2564 28.2564 28.2564 28.2564 28.2564 36.2564 28.2564 34.2564 28.2564 28.2564 28.2564 28.2564 28.2564 30.2564 28.2564 28.2564 28.2564 28.2564 28.2564 28.2564 28.2564 29.2564 28.2564 34.2564 28.2564 46.2564 30.2564 28.2564 28.2564 28.2564 28.2564 28.2564 28.2564 28.2564 44.2564 28.2564 28.2564 28.2564 28.2564 28.2564 28.2564 28.2564 28.2564 28.2564 28.2564 35.2564 28.2564 28.2564 120.256 28.2564 44.2564 32.2564 107.256 39.2564 148.256 46.2564 36.2564 38.2564 58.2564 105.256 240.256 32.2564 43.2564 28.2564 178.256 35.2564 38.2564 28.2564 76.2564 118.256 28.2564 28.2564 37.2564 78.2564 201.256 30.2564 28.2564 28.2564 28.2564 28.2564 28.2564 126.256 68.2564 30.2564 40.2564 28.2564 36.2564 28.2564 28.2564 28.2564 28.2564 28.2564 28.2564 28.2564 28.2564 28.2564 274.256 198.256 29.2564 28.2564 28.2564 233.256 126.256 202.256 58.2564 140.256 52.2564 55.2564 28.2564 28.2564 28.2564 28.2564 28.2564 28.2564 28.2564 52.2564 39.2564 29.2564 28.2564 48.2564 28.2564 28.2564 28.2564 28.2564 28.2564 28.2564 28.2564 28.2564 28.2564 28.2564 28.2564 28.2564 28.2564 28.2564 28.2564 28.2564 28.2564 28.2564 28.2564 28.2564 28.2564 28.2564 28.2564 28.2564 449.256 28.2564 28.2564 28.2564 28.2564 28.2564 28.2564 28.2564 28.2564 28.2564 28.2564 28.2564 49.2564 28.2564 28.2564 28.2564 82.2564 47.2564 797.112 28.2564 28.2564 289.256 28.2564 28.2564 392.256 28.2564 28.2564 28.2564 28.2564 28.2564 28.2564 28.2564 28.2564 28.2564 28.2564 28.2564 28.2564 28.2564 28.2564 28.2564 28.2564 28.2564 28.2564 28.2564 28.2564 28.2564 28.2564 28.2564 28.2564 28.2564 28.2564 28.2564 28.2564 28.2564 28.2564 28.2564 28.2564 28.2564 28.2564 28.2564 28.2564 28.2564 28.2564 28.2564 28.2564 28.2564 28.2564 28.2564 28.2564 84.2564 28.2564 28.2564 28.2564 28.2564 240.256 28.2564 28.2564 70.2564 28.2564 28.2564 28.2564 28.2564 28.2564 28.2564 28.2564 28.2564 28.2564 34.2564 28.2564 39.2564 28.2564 127.256 28.2564 42.2564 28.2564 28.2564 58.2564 48.2564 31.2564 88.2564 28.2564 28.2564 28.2564 28.2564 28.2564 28.2564 28.2564 28.2564 28.2564 28.2564 34.2564 28.2564 28.2564 28.2564 28.2564 28.2564 28.2564 28.2564 28.2564 28.2564 28.2564 30.2564 28.2564 34.2564 28.2564 88.2564 28.2564 28.2564 32.2564 28.2564 76.2564 28.2564 28.2564 28.2564 64.2564 60.2564 28.2564 28.2564 28.2564 28.2564 28.2564 28.2564 28.2564 52.2564 28.2564 28.2564 28.2564 28.2564 28.2564 28.2564 28.2564 28.2564 28.2564 28.2564 28.2564 28.2564 28.2564 28.2564 28.2564 28.2564 28.2564 28.2564 28.2564 28.2564 28.2564 28.2564 28.2564 28.2564 28.2564 28.2564 28.2564 658.256 28.2564 28.2564 28.2564 28.2564 28.2564 28.2564 28.2564 28.2564 28.2564 28.2564 28.2564 28.2564 28.2564 28.2564 28.2564 28.2564 28.2564 28.2564 28.2564 28.2564 28.2564 28.2564 28.2564 28.2564 28.2564 468.256 28.2564 28.2564 28.2564 28.2564 28.2564 30.2564 28.2564 28.2564 28.2564 28.2564 28.2564 28.2564 28.2564 48.2564 28.2564 31.2564 28.2564 28.2564 28.2564 29.2564 28.2564 28.2564 34.2564 28.2564 28.2564 28.2564 28.2564 38.2564 28.2564 526.648 28.2564 28.2564 28.2564 28.2564 28.2564 28.2564 28.2564 37.2564 64.2564 75.2564 160.256 37.2564 40.2564 82.2564 237.256 93.2564 50.2564 29.2564 28.2564 28.2564 28.2564 28.2564 34.2564 129.256 28.2564 28.2564 40.2564 112.256 42.2564 62.2564 83.2564 38.2564 28.2564 28.2564 38.2564 32.2564 28.2564 28.2564 28.2564 28.2564 30.2564 28.2564 28.2564 28.2564 28.2564 28.2564 28.2564 28.2564 28.2564 28.2564 28.2564 28.2564 28.2564 28.2564 28.2564 29.2564 28.2564 33.2564 28.2564 28.2564 34.2564 28.2564 28.2564 28.2564 28.2564 28.2564 28.2564 28.2564 28.2564 28.2564 28.2564 28.2564 28.2564 28.2564 28.2564 33.2564 28.2564 28.2564 28.2564 28.2564 28.2564 28.2564 28.2564 33.2564 28.2564 28.2564 28.2564 28.2564 28.2564 28.2564 28.2564 50.2564 28.2564 28.2564 70.2564 28.2564 32.2564 28.2564 78.2564 442.256 28.2564 28.2564 28.2564 28.2564 28.2564 28.2564 28.2564 28.2564 28.2564 28.2564 28.2564 28.2564 499.256 28.2564 28.2564 28.2564 28.2564 28.2564 28.2564 68.2564 28.2564 28.2564 28.2564 28.2564 28.2564 28.2564 28.2564 28.2564 39.2564 28.2564 31.2564 40.2564 30.2564 28.2564 28.2564 28.2564 32.2564 28.2564 28.2564 28.2564 28.2564 28.2564 70.2564 28.2564 28.2564 28.2564 28.2564 28.2564 28.2564 28.2564 28.2564 28.2564 28.2564 31.2564 28.2564 28.2564 28.2564 28.2564 28.2564 28.2564 28.2564 36.2564 28.2564 28.2564 28.2564 28.2564 32.2564 28.2564 28.2564 28.2564 28.2564 73.2564 28.2564 28.2564 28.2564 28.2564 68.2564 28.2564 28.2564 28.2564 28.2564 28.2564 28.2564 28.2564 28.2564 28.2564 28.2564 28.2564 55.2564 28.2564 28.2564 43.2564 28.2564 28.2564 28.2564 31.2564 145.256 164.256 36.2564 40.2564 28.2564 31.2564 60.2564 28.2564 28.2564 28.2564 28.2564 28.2564 28.2564 67.2564 72.2564 140.256 28.2564 37.2564 58.2564 31.2564 28.2564 28.2564 28.2564 28.2564 28.2564 28.2564 28.2564 40.2564 52.2564 32.2564 28.2564 28.2564 28.2564 30.2564 119.256 37.2564 28.2564 194.256 43.2564 48.2564 28.2564 70.2564 28.2564 28.2564 28.2564 28.2564 32.2564 28.2564 33.2564 28.2564 28.2564 28.2564 28.2564 50.2564 28.2564 28.2564 28.2564 28.2564 28.2564 28.2564 28.2564 28.2564 28.2564 28.2564 28.2564 28.2564 28.2564 28.2564 28.2564 28.2564 28.2564 28.2564 28.2564 28.2564 28.2564 28.2564 28.2564 28.2564 28.2564 28.2564 28.2564 28.2564 28.2564 132.256 28.2564 28.2564 28.2564 28.2564 28.2564 28.2564 28.2564 28.2564 28.2564 28.2564 28.2564 28.2564 28.2564 28.2564 28.2564 28.2564 28.2564 28.2564 28.2564 28.2564 28.2564 28.2564 28.2564 28.2564 28.2564 28.2564 28.2564 28.2564 28.2564 28.2564 28.2564 28.2564 28.2564 28.2564 28.2564 28.2564 28.2564 28.2564 28.2564 28.2564 33.2564 28.2564 28.2564 28.2564 28.2564 28.2564 28.2564 28.2564 28.2564 28.2564 28.2564 28.2564 28.2564 28.2564 28.2564 28.2564 28.2564 28.2564 28.2564 28.2564 70.2564 38.2564 28.2564 78.2564 112.256 28.2564 28.2564 28.2564 82.2564 28.2564 28.2564 28.2564 28.2564 28.2564 67.2564 28.2564 70.2564 28.2564 28.2564 28.2564 28.2564 28.2564 28.2564 28.2564 28.2564 29.2564 108.256 28.2564 52.2564 28.2564 28.2564 28.2564 28.2564 46.2564 28.2564 28.2564 28.2564 33.2564 64.2564 53.2564 73.2564 84.2564 28.2564 32.2564 56.2564 28.2564 28.2564 29.2564 28.2564 28.2564 28.2564 28.2564 28.2564 64.2564 28.2564 28.2564 52.2564 28.2564 35.2564 31.2564 28.2564 50.2564 28.2564 54.2564 43.2564 28.2564 403.256 28.2564 152.256 194.256 44.2564 28.2564 28.2564 40.2564 28.2564 48.2564 40.2564 28.2564 28.2564 28.2564 28.2564 29.2564 28.2564 28.2564 28.2564 28.2564 28.2564 28.2564 28.2564 28.2564 28.2564 28.2564 37.2564 31.2564 28.2564 28.2564 28.2564 28.2564 28.2564 30.2564 28.2564 28.2564 28.2564 28.2564 28.2564 28.2564 28.2564 28.2564 28.2564 28.2564 28.2564 28.2564 28.2564 28.2564 28.2564 28.2564 28.2564 28.2564 28.2564 28.2564 28.2564 28.2564 28.2564 28.2564 28.2564 30.2564 28.2564 28.2564 28.2564 28.2564 28.2564 28.2564 28.2564 28.2564 28.2564 28.2564 28.2564 28.2564 28.2564 28.2564 30.2564 28.2564 28.2564 28.2564 38.2564 28.2564 28.2564 43.2564 28.2564 28.2564 29.2564 28.2564 28.2564 28.2564 28.2564 28.2564 78.2564 28.2564 28.2564 28.2564 28.2564 31.2564 36.2564 28.2564 28.2564 28.2564 28.2564 28.2564 28.2564 30.2564 28.2564 28.2564 28.2564 28.2564 28.2564 28.2564 28.2564 28.2564 28.2564 28.2564 28.2564 45.2564 28.2564 33.2564 28.2564 28.2564 28.2564 28.2564 28.2564 28.2564 28.2564 28.2564 28.2564 28.2564 28.2564 28.2564 28.2564 28.2564 30.2564 28.2564 28.2564 28.2564 28.2564 30.2564 28.2564 28.2564 28.2564 54.2564 28.2564 28.2564 28.2564 153.256 28.2564 28.2564 32.2564 28.2564 28.2564 28.2564 28.2564 28.2564 28.2564 52.2564 28.2564 28.2564 43.2564 93.2564 55.2564 50.2564 28.2564 28.2564 46.2564 87.2564 28.2564 73.2564 28.2564 28.2564 28.2564 28.2564 35.2564 84.2564 28.2564 92.2564 42.2564 28.2564 28.2564 28.2564 28.2564 28.2564 28.2564 28.2564 28.2564 28.2564 28.2564 28.2564 28.2564 28.2564 28.2564 28.2564 28.2564 28.2564 28.2564 28.2564 28.2564 28.2564 28.2564 28.2564 28.2564 28.2564 28.2564 28.2564 28.2564 28.2564 28.2564 28.2564 28.2564 28.2564 28.2564 28.2564 28.2564 28.2564 28.2564 28.2564 28.2564 28.2564 28.2564 28.2564 28.2564 28.2564 28.2564 28.2564 28.2564 28.2564 28.2564 28.2564 28.2564 28.2564 28.2564 28.2564 28.2564 28.2564 28.2564 28.2564 28.2564 28.2564 28.2564 28.2564 28.2564 28.2564 28.2564 28.2564 38.2564 28.2564 28.2564 28.2564 28.2564 28.2564 28.2564 28.2564 28.2564 352.256 28.2564 28.2564 28.2564 28.2564 28.2564 28.2564 28.2564 28.2564 28.2564 28.2564 28.2564 28.2564 28.2564 28.2564 28.2564 28.2564 28.2564 52.2564 33.2564 28.2564 28.2564 28.2564 72.2564 28.2564 28.2564 73.2564 28.2564 28.2564 52.2564 54.2564 28.2564 28.2564 74.2564 28.2564 40.2564 28.2564 28.2564 28.2564 28.2564 28.2564 28.2564 85.2564 28.2564 28.2564 28.2564 28.2564 68.2564 28.2564 28.2564 128.256 36.2564 55.2564 28.2564 28.2564 52.2564 28.2564 32.2564 32.2564 28.2564 36.2564 28.2564 28.2564 28.2564 28.2564 28.2564 28.2564 46.2564 28.2564 36.2564 28.2564 28.2564 28.2564 28.2564 28.2564 28.2564 28.2564 140.256 28.2564 40.2564 28.2564 45.2564 28.2564 28.2564 28.2564 78.2564 44.2564 193.256 28.2564 28.2564 28.2564 28.2564 28.2564 28.2564 28.2564 28.2564 28.2564 28.2564 34.2564 28.2564 28.2564 28.2564 28.2564 28.2564 28.2564 28.2564 28.2564 28.2564 28.2564 28.2564 28.2564 28.2564 28.2564 28.2564 59.2564 28.2564 28.2564 28.2564 28.2564 51.2564 28.2564 28.2564 28.2564 28.2564 28.2564 28.2564 28.2564 28.2564 28.2564 28.2564 30.2564 28.2564 28.2564 28.2564 28.2564 28.2564 28.2564 28.2564 28.2564 28.2564 28.2564 28.2564 28.2564 28.2564 28.2564 28.2564 28.2564 28.2564 46.2564 31.2564 28.2564 28.2564 28.2564 28.2564 35.2564 28.2564 28.2564 28.2564 28.2564 28.2564 28.2564 28.2564 28.2564 28.2564 28.2564 467.256 65.2564 28.2564 28.2564 28.2564 28.2564 28.2564 28.2564 28.2564 28.2564 28.2564 28.2564 34.2564 43.2564 29.2564 28.2564 35.2564 28.2564 28.2564 28.2564 28.2564 28.2564 28.2564 28.2564 28.2564 28.2564 35.2564 28.2564 28.2564 28.2564 28.2564 28.2564 28.2564 28.2564 28.2564 28.2564 28.2564 28.2564 28.2564 55.2564 28.2564 32.2564 28.2564 28.2564 48.2564 28.2564 28.2564 28.2564 28.2564 28.2564 28.2564 28.2564 28.2564 28.2564 28.2564 28.2564 28.2564 28.2564 28.2564 28.2564 28.2564 28.2564 28.2564 28.2564 28.2564 28.2564 141.256 28.2564 28.2564 28.2564 161.256 28.2564 70.2564 255.256 28.2564 28.2564 28.2564 28.2564 28.2564 285.256 28.2564 28.2564 28.2564 28.2564 28.2564 28.2564 28.2564 28.2564 28.2564 28.2564 28.2564 28.2564 28.2564 28.2564 28.2564 28.2564 28.2564 28.2564 28.2564 28.2564 28.2564 28.2564 28.2564 28.2564 28.2564 28.2564 28.2564 28.2564 28.2564 28.2564 28.2564 28.2564 28.2564 28.2564 28.2564 28.2564 28.2564 28.2564 28.2564 28.2564 28.2564 28.2564 28.2564 28.2564 28.2564 28.2564 28.2564 28.2564 28.2564 28.2564 28.2564 28.2564 28.2564 28.2564 28.2564 28.2564 28.2564 28.2564 58.2564 33.2564 28.2564 28.2564 28.2564 28.2564 62.2564 28.2564 28.2564 28.2564 28.2564 28.2564 28.2564 28.2564 28.2564 28.2564 28.2564 28.2564 28.2564 28.2564 28.2564 28.2564 47.2564 28.2564 28.2564 28.2564 28.2564 28.2564 28.2564 28.2564 28.2564 28.2564 28.2564 28.2564 28.2564 28.2564 28.2564 28.2564 28.2564 28.2564 28.2564 28.2564 28.2564 28.2564 28.2564 28.2564 28.2564 28.2564 28.2564 32.2564 30.2564 218.256 28.2564 30.2564 28.2564 28.2564 28.2564 88.2564 28.2564 28.2564 28.2564 34.2564 28.2564 28.2564 28.2564 28.2564 28.2564 28.2564 28.2564 28.2564 28.2564 28.2564 28.2564 28.2564 28.2564 28.2564 38.2564 28.2564 40.2564 28.2564 31.2564 28.2564 34.2564 28.2564 37.2564 28.2564 28.2564 28.2564 28.2564 28.2564 36.2564 28.2564 28.2564 28.2564 28.2564 86.2564 28.2564 28.2564 28.2564 28.2564 37.2564 28.2564 28.2564 31.2564 28.2564 28.2564 28.2564 28.2564 28.2564 28.2564 61.2564 31.2564 28.2564 28.2564 28.2564 28.2564 28.2564 28.2564 28.2564 28.2564 28.2564 28.2564 28.2564 28.2564 28.2564 28.2564 28.2564 28.2564 28.2564 28.2564 28.2564 28.2564 28.2564 28.2564 28.2564 28.2564 28.2564 28.2564 28.2564 28.2564 28.2564 28.2564 28.2564 28.2564 28.2564 28.2564 28.2564 28.2564 28.2564 28.2564 28.2564 28.2564 28.2564 28.2564 28.2564 28.2564 28.2564 28.2564 28.2564 28.2564 28.2564 28.2564 28.2564 28.2564 28.2564 28.2564 28.2564 28.2564 28.2564 28.2564 28.2564 28.2564 28.2564 28.2564 28.2564 28.2564 28.2564 28.2564 28.2564 28.2564 28.2564 28.2564 28.2564 28.2564 28.2564 28.2564 28.2564 28.2564 28.2564 28.2564 28.2564 28.2564 34.2564 28.2564 28.2564 28.2564 28.2564 34.2564 28.2564 28.2564 28.2564 28.2564 28.2564 28.2564 44.2564 28.2564 28.2564 
rewards of Offsets elements: 761 179 498 0 0 0 0 0 0 427 286 0 0 0 569 0 751 0 319 0 0 0 0 0 0 0 0 0 166 0 450 0 0 474 0 0 0 0 0 0 0 346 323 512 0 0 0 0 0 0 6 0 0 0 0 0 0 0 0 0 0 548 0 0 0 0 2 0 0 0 0 0 0 0 6 0 314 2 0 0 0 0 0 0 0 0 0 0 0 0 0 15 0 8 0 0 0 0 0 8 0 6 0 0 0 0 0 2 0 0 0 0 0 0 0 1 0 6 0 18 2 0 0 0 0 0 0 0 16 0 0 0 0 0 0 0 0 0 0 7 0 0 92 0 16 4 79 11 120 18 8 10 30 77 212 4 15 0 150 7 10 0 48 90 0 0 9 50 173 2 0 0 0 0 0 98 40 2 12 0 8 0 0 0 0 0 0 0 0 0 246 170 1 0 0 205 98 174 30 112 24 27 0 0 0 0 0 0 0 24 11 1 0 20 0 0 0 0 0 0 0 0 0 0 0 0 0 0 0 0 0 0 0 0 0 0 0 0 421 0 0 0 0 0 0 0 0 0 0 0 21 0 0 0 54 19 797 0 0 261 0 0 364 0 0 0 0 0 0 0 0 0 0 0 0 0 0 0 0 0 0 0 0 0 0 0 0 0 0 0 0 0 0 0 0 0 0 0 0 0 0 0 0 0 0 0 0 56 0 0 0 0 212 0 0 42 0 0 0 0 0 0 0 0 0 6 0 11 0 99 0 14 0 0 30 20 3 60 0 0 0 0 0 0 0 0 0 0 6 0 0 0 0 0 0 0 0 0 0 2 0 6 0 60 0 0 4 0 48 0 0 0 36 32 0 0 0 0 0 0 0 24 0 0 0 0 0 0 0 0 0 0 0 0 0 0 0 0 0 0 0 0 0 0 0 0 0 0 0 630 0 0 0 0 0 0 0 0 0 0 0 0 0 0 0 0 0 0 0 0 0 0 0 0 0 440 0 0 0 0 0 2 0 0 0 0 0 0 0 20 0 3 0 0 0 1 0 0 6 0 0 0 0 10 0 523 0 0 0 0 0 0 0 9 36 47 132 9 12 54 209 65 22 1 0 0 0 0 6 101 0 0 12 84 14 34 55 10 0 0 10 4 0 0 0 0 2 0 0 0 0 0 0 0 0 0 0 0 0 0 0 1 0 5 0 0 6 0 0 0 0 0 0 0 0 0 0 0 0 0 0 5 0 0 0 0 0 0 0 5 0 0 0 0 0 0 0 22 0 0 42 0 4 0 50 414 0 0 0 0 0 0 0 0 0 0 0 0 471 0 0 0 0 0 0 40 0 0 0 0 0 0 0 0 11 0 3 12 2 0 0 0 4 0 0 0 0 0 42 0 0 0 0 0 0 0 0 0 0 3 0 0 0 0 0 0 0 8 0 0 0 0 4 0 0 0 0 45 0 0 0 0 40 0 0 0 0 0 0 0 0 0 0 0 27 0 0 15 0 0 0 3 117 136 8 12 0 3 32 0 0 0 0 0 0 39 44 112 0 9 30 3 0 0 0 0 0 0 0 12 24 4 0 0 0 2 91 9 0 166 15 20 0 42 0 0 0 0 4 0 5 0 0 0 0 22 0 0 0 0 0 0 0 0 0 0 0 0 0 0 0 0 0 0 0 0 0 0 0 0 0 0 0 0 0 104 0 0 0 0 0 0 0 0 0 0 0 0 0 0 0 0 0 0 0 0 0 0 0 0 0 0 0 0 0 0 0 0 0 0 0 0 0 0 0 0 5 0 0 0 0 0 0 0 0 0 0 0 0 0 0 0 0 0 0 0 42 10 0 50 84 0 0 0 54 0 0 0 0 0 39 0 42 0 0 0 0 0 0 0 0 1 80 0 24 0 0 0 0 18 0 0 0 5 36 25 45 56 0 4 28 0 0 1 0 0 0 0 0 36 0 0 24 0 7 3 0 22 0 26 15 0 375 0 124 166 16 0 0 12 0 20 12 0 0 0 0 1 0 0 0 0 0 0 0 0 0 0 9 3 0 0 0 0 0 2 0 0 0 0 0 0 0 0 0 0 0 0 0 0 0 0 0 0 0 0 0 0 0 0 0 2 0 0 0 0 0 0 0 0 0 0 0 0 0 0 2 0 0 0 10 0 0 15 0 0 1 0 0 0 0 0 50 0 0 0 0 3 8 0 0 0 0 0 0 2 0 0 0 0 0 0 0 0 0 0 0 17 0 5 0 0 0 0 0 0 0 0 0 0 0 0 0 0 2 0 0 0 0 2 0 0 0 26 0 0 0 125 0 0 4 0 0 0 0 0 0 24 0 0 15 65 27 22 0 0 18 59 0 45 0 0 0 0 7 56 0 64 14 0 0 0 0 0 0 0 0 0 0 0 0 0 0 0 0 0 0 0 0 0 0 0 0 0 0 0 0 0 0 0 0 0 0 0 0 0 0 0 0 0 0 0 0 0 0 0 0 0 0 0 0 0 0 0 0 0 0 0 0 0 0 0 0 0 0 0 10 0 0 0 0 0 0 0 0 324 0 0 0 0 0 0 0 0 0 0 0 0 0 0 0 0 0 24 5 0 0 0 44 0 0 45 0 0 24 26 0 0 46 0 12 0 0 0 0 0 0 57 0 0 0 0 40 0 0 100 8 27 0 0 24 0 4 4 0 8 0 0 0 0 0 0 18 0 8 0 0 0 0 0 0 0 112 0 12 0 17 0 0 0 50 16 165 0 0 0 0 0 0 0 0 0 0 6 0 0 0 0 0 0 0 0 0 0 0 0 0 0 0 31 0 0 0 0 23 0 0 0 0 0 0 0 0 0 0 2 0 0 0 0 0 0 0 0 0 0 0 0 0 0 0 0 0 18 3 0 0 0 0 7 0 0 0 0 0 0 0 0 0 0 439 37 0 0 0 0 0 0 0 0 0 0 6 15 1 0 7 0 0 0 0 0 0 0 0 0 7 0 0 0 0 0 0 0 0 0 0 0 0 27 0 4 0 0 20 0 0 0 0 0 0 0 0 0 0 0 0 0 0 0 0 0 0 0 0 0 113 0 0 0 133 0 42 227 0 0 0 0 0 257 0 0 0 0 0 0 0 0 0 0 0 0 0 0 0 0 0 0 0 0 0 0 0 0 0 0 0 0 0 0 0 0 0 0 0 0 0 0 0 0 0 0 0 0 0 0 0 0 0 0 0 0 0 0 0 0 0 0 30 5 0 0 0 0 34 0 0 0 0 0 0 0 0 0 0 0 0 0 0 0 19 0 0 0 0 0 0 0 0 0 0 0 0 0 0 0 0 0 0 0 0 0 0 0 0 0 0 4 2 190 0 2 0 0 0 60 0 0 0 6 0 0 0 0 0 0 0 0 0 0 0 0 0 0 10 0 12 0 3 0 6 0 9 0 0 0 0 0 8 0 0 0 0 58 0 0 0 0 9 0 0 3 0 0 0 0 0 0 33 3 0 0 0 0 0 0 0 0 0 0 0 0 0 0 0 0 0 0 0 0 0 0 0 0 0 0 0 0 0 0 0 0 0 0 0 0 0 0 0 0 0 0 0 0 0 0 0 0 0 0 0 0 0 0 0 0 0 0 0 0 0 0 0 0 0 0 0 0 0 0 0 0 0 0 0 0 0 0 0 0 6 0 0 0 0 6 0 0 0 0 0 0 16 0 0 Printing Sanity3
offset_index value1635
offset list size1635
reward size1635
potential size1635
-----------------------------------------------------------------------------------------------------------------------------------------------------------------------------------------------------

DRAM Statistics
 CHANNEL 0
 RQ ROW_BUFFER_HIT:    1873756  ROW_BUFFER_MISS:    2177643
 DBUS_CONGESTED:       2936
 WQ ROW_BUFFER_HIT:     587239  ROW_BUFFER_MISS:    2146421  FULL:      44654

 AVG_CONGESTED_CYCLE: 3
 All warmup complete: 2
Channel 0 Bank busy for read cycles: 0
Channel 0 Bank busy for write cycles: 0
Channel 0
Rank 0
0banks busy for read cycles: 173708238
0banks busy for write cycles: 249964
1banks busy for read cycles: 28895695
1banks busy for write cycles: 32529063
2banks busy for read cycles: 17683066
2banks busy for write cycles: 14504898
3banks busy for read cycles: 17776326
3banks busy for write cycles: 7433627
4banks busy for read cycles: 9994897
4banks busy for write cycles: 4885981
5banks busy for read cycles: 6696189
5banks busy for write cycles: 3723769
6banks busy for read cycles: 11935570
6banks busy for write cycles: 3610112
7banks busy for read cycles: 5327447
7banks busy for write cycles: 6073955
8banks busy for read cycles: 15948254
8banks busy for write cycles: 36880895

CPU 0 Branch Prediction Accuracy: 99.9481% MPKI: 0.07946 Average ROB Occupancy at Mispredict: 129.401
Branch types
NOT_BRANCH: 169359834 84.6799%
BRANCH_DIRECT_JUMP: 1652265 0.826133%
BRANCH_INDIRECT: 9950809 4.9754%
BRANCH_CONDITIONAL: 12232165 6.11608%
BRANCH_DIRECT_CALL: 2809804 1.4049%
BRANCH_INDIRECT_CALL: 592726 0.296363%
BRANCH_RETURN: 3402380 1.70119%
BRANCH_OTHER: 0 0%

DRAM PAGES: 1048576
Allocated PAGES: 8128
