
*** ChampSim Multicore Out-of-Order Simulator ***

Warmup Instructions: 50000000
Simulation Instructions: 200000000
Number of CPUs: 1
LLC sets: 2048
LLC ways: 16
Off-chip DRAM Size: 4096 MB Channels: 1 Width: 64-bit Data Rate: 6400 MT/s
CPU 0 runs traces/spec2k17/srv_9.champsimtrace.xz
.xz
BTB has LRU replacement policy
ITLB has LRU replacement policy
DTLB has LRU replacement policy
STLB has LRU replacement policy
L1I has LRU replacement policy
L1D has LRU replacement policy
Initialize SRRIP state for L2C
Initialize DRRIP state for LLC
Offsets elements: 
Potential of Offsets elements: 
rewards of Offsets elements: 
Printing Sanity1
offset list size2402
Offsets elements: 
Potential of Offsets elements: 
rewards of Offsets elements: 0 0 0 1594 0 0 0 0 0 1980 2533 0 0 0 0 0 0 0 0 0 0 0 0 0 0 2340 0 0 0 0 0 0 0 0 0 0 0 0 1106 0 0 0 0 0 221 0 0 0 0 0 0 0 2924 0 1 0 0 0 0 0 0 593 0 948 0 5 0 0 0 0 0 0 0 0 0 0 0 0 0 0 28 43 0 0 217 0 0 0 0 0 0 0 376 0 0 0 0 0 1 0 0 740 0 0 0 648 0 0 0 0 0 0 0 0 0 946 0 0 0 0 0 0 0 0 0 0 0 0 0 0 0 0 0 0 0 1597 0 0 0 0 0 0 0 0 0 0 0 0 0 0 0 0 0 0 0 0 0 0 0 0 0 0 0 0 0 0 0 0 0 22 0 0 0 0 0 0 0 0 0 0 0 0 0 0 0 0 0 0 0 0 0 0 0 0 0 0 0 0 0 8 0 0 0 0 0 0 0 0 0 0 0 0 0 0 0 0 0 0 0 0 0 0 0 0 0 6 0 0 0 20 0 0 0 0 0 0 0 0 0 0 0 0 0 0 0 0 0 0 0 0 0 0 0 0 0 0 0 0 0 103 0 0 0 0 0 0 0 0 0 0 0 0 0 0 0 0 0 0 0 0 0 0 0 0 0 0 0 0 0 0 0 0 0 0 0 1 0 0 0 0 0 0 0 0 0 0 0 0 0 0 0 0 0 0 0 0 0 0 0 0 0 0 0 0 0 0 0 0 0 0 0 0 0 0 200 0 0 0 0 0 0 0 0 0 0 0 0 0 0 0 0 0 0 0 0 0 0 0 0 0 0 0 0 0 0 0 0 0 0 0 0 0 0 0 0 0 0 0 0 0 0 0 0 0 0 0 0 0 0 0 0 0 0 1 0 0 0 0 0 0 0 0 0 0 0 0 0 6 0 0 0 0 0 0 0 0 0 0 0 0 0 0 0 0 0 0 0 0 0 0 0 0 0 0 0 0 0 0 0 0 0 0 0 0 0 3 0 0 0 0 0 0 0 0 0 0 0 0 0 0 0 0 0 0 0 0 0 0 205 0 0 0 0 0 0 0 0 0 0 0 0 0 1 0 0 0 0 0 0 0 0 0 0 0 0 0 0 0 0 0 0 0 0 18 0 0 0 0 0 0 0 0 0 0 0 0 0 0 0 0 0 0 0 0 0 0 0 0 0 0 0 0 0 0 707 697 0 0 12 0 26 12 0 0 0 0 0 0 0 0 0 0 0 0 0 0 0 0 10 1 0 0 0 0 0 908 0 0 0 0 0 0 0 0 0 0 0 0 0 0 0 0 0 0 0 0 0 0 0 0 0 0 244 0 0 0 0 0 0 0 0 0 0 0 0 0 0 286 0 0 0 0 0 0 0 0 0 0 0 0 0 0 0 0 0 0 0 0 0 0 0 0 0 0 0 0 0 0 0 0 0 0 0 0 0 0 0 0 0 0 0 0 0 0 0 0 0 0 0 0 0 0 0 0 0 0 0 0 0 0 0 0 0 112 0 0 0 0 0 0 0 0 0 0 0 0 0 0 0 0 0 0 0 0 0 0 0 0 0 0 0 0 0 0 0 0 0 0 0 0 0 0 0 0 0 0 0 0 0 0 0 0 0 0 0 0 0 0 0 0 0 0 0 0 0 371 0 0 0 0 0 0 0 0 0 0 0 0 0 0 0 0 0 0 0 0 0 0 0 0 0 0 0 0 0 0 0 0 0 0 0 0 0 0 0 0 0 0 0 0 0 0 0 0 0 0 0 0 0 136 0 0 0 0 0 116 0 0 0 0 0 0 0 0 0 0 283 0 0 0 0 0 0 0 0 0 0 0 0 0 0 0 0 0 0 0 0 0 0 0 0 0 0 0 0 0 0 96 0 0 0 0 0 0 0 0 0 0 0 0 0 0 0 0 0 0 0 0 0 0 0 0 0 0 0 0 0 0 0 0 0 0 0 0 0 0 0 0 0 0 0 0 0 0 0 0 0 0 0 0 0 0 0 0 0 0 0 0 0 0 0 0 38 82 0 0 0 0 0 0 0 0 0 0 0 0 0 0 0 0 0 0 0 0 0 0 0 0 0 0 0 1 0 0 0 0 1 0 0 0 0 0 0 0 0 0 0 0 0 0 0 0 0 0 0 0 0 0 0 0 0 0 0 0 0 0 0 0 0 0 0 0 0 0 0 0 0 0 0 0 0 0 0 0 0 0 0 0 0 0 0 0 0 0 0 0 0 0 0 0 0 0 0 0 0 0 0 0 0 0 0 0 0 0 0 0 0 0 0 0 0 0 0 0 0 0 0 0 0 0 0 0 0 0 0 0 0 0 0 0 0 0 0 0 0 0 0 0 0 0 0 0 0 0 0 0 0 0 0 0 0 0 0 0 0 0 0 0 0 0 0 0 0 0 0 0 0 0 0 0 0 0 0 24 0 0 0 0 0 0 0 0 0 0 0 0 0 0 0 0 0 0 0 0 0 0 0 0 0 0 0 0 0 0 0 0 0 0 0 0 0 0 0 0 0 0 0 0 0 0 0 0 0 0 0 0 0 0 0 0 0 0 0 108 0 0 0 0 190 0 0 0 0 0 0 0 0 0 0 0 0 0 0 0 0 0 0 0 0 0 0 0 0 0 0 0 0 1 273 0 0 0 0 0 0 0 0 6 0 0 0 0 0 0 0 0 0 0 0 0 0 0 0 0 0 0 0 0 0 0 0 0 0 0 0 0 0 0 0 0 0 198 23 8 1 0 0 0 0 0 0 0 0 0 0 0 0 0 0 0 0 0 0 0 0 0 0 0 0 0 0 0 0 0 0 0 0 0 0 0 0 0 0 0 0 0 0 0 0 0 0 0 0 0 0 0 0 0 0 0 0 0 0 0 0 0 0 0 0 0 0 0 0 0 0 0 0 0 0 0 0 0 0 0 0 0 0 0 0 0 0 0 0 0 0 0 0 0 0 0 0 0 102 0 140 0 0 0 0 0 0 0 0 0 0 0 0 0 0 0 0 0 0 0 0 0 0 0 0 0 0 0 0 0 0 0 0 0 0 0 0 0 0 0 0 0 0 0 0 0 0 0 0 1 4 3 0 0 9 46 0 12 13 24 8 0 0 0 0 0 0 0 0 0 0 0 0 0 0 59 58 0 0 0 2 0 0 0 0 0 0 0 0 0 0 0 0 0 0 0 0 0 0 0 0 0 0 0 0 0 0 0 0 0 0 0 0 0 0 0 0 0 0 0 0 0 0 0 0 0 0 0 0 0 0 0 0 0 0 0 0 0 0 0 0 0 0 0 0 0 0 0 0 0 0 0 0 0 0 0 0 0 4 0 0 0 0 0 0 0 0 0 0 0 0 0 0 0 0 0 0 0 0 0 0 0 0 0 0 0 0 0 0 0 0 0 0 0 0 0 0 0 0 0 0 0 0 0 0 0 0 0 0 0 0 0 0 0 0 0 0 0 0 0 0 0 0 0 0 0 0 0 0 0 0 0 0 0 0 0 0 0 0 0 0 0 0 0 0 0 0 0 0 0 0 0 0 0 0 0 0 0 0 0 0 0 0 0 0 0 0 0 0 0 0 0 0 0 0 0 0 0 0 0 0 0 0 0 0 0 0 0 0 0 0 0 0 0 0 0 0 0 0 0 0 0 0 0 0 0 0 0 0 0 0 0 0 0 0 0 0 0 0 0 0 0 0 0 0 0 0 0 0 0 0 0 0 0 0 0 0 0 0 0 0 0 0 0 0 0 0 0 0 0 0 0 0 0 0 0 0 0 0 0 0 0 0 0 0 0 0 0 0 0 0 0 6 0 0 0 0 0 0 0 0 0 0 0 0 0 0 0 0 0 0 0 0 0 0 0 0 0 0 0 0 0 0 0 0 0 16 0 0 0 0 0 0 0 0 0 0 0 0 0 0 0 0 0 0 0 0 0 0 0 0 0 0 0 0 0 0 0 0 0 0 0 0 0 0 0 0 0 0 0 0 0 0 0 0 0 0 0 0 0 0 0 0 0 0 0 0 0 0 0 0 0 0 0 0 0 0 0 0 0 0 0 0 0 0 0 0 0 0 0 0 0 0 0 0 0 4 0 0 0 0 0 0 0 0 0 0 0 0 0 0 0 0 0 0 0 0 0 0 0 0 0 0 0 0 0 0 0 0 0 0 0 0 0 0 0 0 0 0 0 0 0 0 0 0 0 0 0 0 0 0 0 0 0 0 0 0 0 0 0 0 0 0 0 0 0 0 0 0 0 0 0 0 0 0 0 0 0 0 0 0 0 0 0 0 0 0 0 0 0 0 0 0 0 0 0 0 0 0 0 0 0 0 0 0 0 0 0 0 0 0 0 0 0 0 0 0 0 0 0 0 0 0 0 0 0 0 0 0 0 0 0 0 0 0 0 0 0 0 0 0 0 0 0 0 0 0 0 0 0 0 0 0 0 0 0 0 0 0 0 0 0 0 0 0 0 0 0 0 0 0 0 0 0 0 0 0 0 0 0 0 0 0 0 0 0 0 0 0 0 0 0 0 0 0 0 0 0 0 0 0 0 0 0 0 0 0 0 0 0 0 0 0 0 0 0 0 0 0 0 0 0 0 0 0 0 0 0 0 0 0 0 0 0 0 0 0 0 0 0 0 0 0 0 0 0 0 0 0 0 0 0 0 0 0 0 6 0 0 0 0 0 0 0 0 0 0 0 0 0 0 0 0 0 0 0 0 0 0 0 0 0 0 0 0 0 0 0 0 0 0 0 0 0 0 0 0 0 0 0 0 0 0 0 0 0 0 0 0 0 0 0 0 0 0 0 0 0 0 0 0 0 0 0 0 0 0 0 0 0 0 0 0 0 0 0 0 0 0 0 0 0 0 0 0 0 0 16 0 0 0 0 0 0 0 0 0 0 0 0 0 0 0 0 0 0 0 0 0 0 0 0 0 0 0 0 0 0 0 4 0 0 0 0 0 0 0 0 0 0 0 0 0 0 0 0 0 0 0 0 0 0 0 0 0 0 0 0 0 0 0 0 0 0 0 0 0 0 0 0 0 0 0 0 0 0 0 0 0 0 0 0 0 0 0 0 0 0 12 0 18 0 0 0 0 0 0 0 0 0 0 0 0 0 0 0 0 0 0 0 0 0 0 0 0 0 0 0 0 0 0 0 0 0 0 0 0 0 6 0 0 0 0 0 0 2 0 0 0 0 0 0 0 0 0 0 0 0 0 0 0 0 0 0 0 0 0 0 0 0 0 0 0 0 0 0 0 0 0 0 0 0 0 0 0 0 0 0 0 0 0 0 0 0 0 0 0 0 0 0 0 0 0 0 0 0 0 0 0 0 0 0 0 0 0 0 0 0 0 0 0 0 4 0 0 0 0 0 0 0 0 0 0 0 0 0 0 0 
Printing Sanity2
Heartbeat CPU 0 instructions: 10000001 cycles: 3736367 heartbeat IPC: 2.6764 cumulative IPC: 2.6764 (Simulation time: 0 hr 0 min 28 sec) 
Heartbeat CPU 0 instructions: 20000002 cycles: 8049155 heartbeat IPC: 2.31869 cumulative IPC: 2.48473 (Simulation time: 0 hr 0 min 58 sec) 
Heartbeat CPU 0 instructions: 30000000 cycles: 11040366 heartbeat IPC: 3.34313 cumulative IPC: 2.7173 (Simulation time: 0 hr 1 min 17 sec) 
*** Reached end of trace for Core: 0 Repeating trace: traces/spec2k17/srv_9.champsimtrace.xz
Heartbeat CPU 0 instructions: 40000001 cycles: 14755804 heartbeat IPC: 2.69147 cumulative IPC: 2.7108 (Simulation time: 0 hr 1 min 44 sec) 
Heartbeat CPU 0 instructions: 50000003 cycles: 18918974 heartbeat IPC: 2.40202 cumulative IPC: 2.64285 (Simulation time: 0 hr 2 min 14 sec) 

Warmup complete CPU 0 instructions: 50000003 cycles: 18918974 (Simulation time: 0 hr 2 min 14 sec) 

Heartbeat CPU 0 instructions: 60000002 cycles: 39678875 heartbeat IPC: 0.481698 cumulative IPC: 0.481698 (Simulation time: 0 hr 2 min 50 sec) 
*** Reached end of trace for Core: 0 Repeating trace: traces/spec2k17/srv_9.champsimtrace.xz
Heartbeat CPU 0 instructions: 70000000 cycles: 66880485 heartbeat IPC: 0.367625 cumulative IPC: 0.417001 (Simulation time: 0 hr 3 min 29 sec) 
Heartbeat CPU 0 instructions: 80000001 cycles: 102101778 heartbeat IPC: 0.283919 cumulative IPC: 0.360651 (Simulation time: 0 hr 4 min 14 sec) 
Heartbeat CPU 0 instructions: 90000001 cycles: 123285062 heartbeat IPC: 0.47207 cumulative IPC: 0.383266 (Simulation time: 0 hr 4 min 50 sec) 
*** Reached end of trace for Core: 0 Repeating trace: traces/spec2k17/srv_9.champsimtrace.xz
Heartbeat CPU 0 instructions: 100000003 cycles: 148915449 heartbeat IPC: 0.390162 cumulative IPC: 0.384626 (Simulation time: 0 hr 5 min 27 sec) 
Heartbeat CPU 0 instructions: 110000000 cycles: 185292441 heartbeat IPC: 0.274899 cumulative IPC: 0.360634 (Simulation time: 0 hr 6 min 9 sec) 
Heartbeat CPU 0 instructions: 120000001 cycles: 206761170 heartbeat IPC: 0.465794 cumulative IPC: 0.372653 (Simulation time: 0 hr 6 min 44 sec) 
*** Reached end of trace for Core: 0 Repeating trace: traces/spec2k17/srv_9.champsimtrace.xz
Heartbeat CPU 0 instructions: 130000003 cycles: 230836405 heartbeat IPC: 0.415365 cumulative IPC: 0.377506 (Simulation time: 0 hr 7 min 19 sec) 
Heartbeat CPU 0 instructions: 140000001 cycles: 268085765 heartbeat IPC: 0.268461 cumulative IPC: 0.361204 (Simulation time: 0 hr 8 min 2 sec) 
Heartbeat CPU 0 instructions: 150000000 cycles: 290137034 heartbeat IPC: 0.453489 cumulative IPC: 0.368707 (Simulation time: 0 hr 8 min 35 sec) 
*** Reached end of trace for Core: 0 Repeating trace: traces/spec2k17/srv_9.champsimtrace.xz
Heartbeat CPU 0 instructions: 160000003 cycles: 312689256 heartbeat IPC: 0.443415 cumulative IPC: 0.374442 (Simulation time: 0 hr 9 min 7 sec) 
Heartbeat CPU 0 instructions: 170000000 cycles: 350415540 heartbeat IPC: 0.265067 cumulative IPC: 0.361995 (Simulation time: 0 hr 9 min 48 sec) 
Heartbeat CPU 0 instructions: 180000000 cycles: 373437228 heartbeat IPC: 0.434373 cumulative IPC: 0.366695 (Simulation time: 0 hr 10 min 19 sec) 
*** Reached end of trace for Core: 0 Repeating trace: traces/spec2k17/srv_9.champsimtrace.xz
Heartbeat CPU 0 instructions: 190000000 cycles: 394325146 heartbeat IPC: 0.478746 cumulative IPC: 0.372929 (Simulation time: 0 hr 10 min 46 sec) 
Heartbeat CPU 0 instructions: 200000000 cycles: 431991519 heartbeat IPC: 0.265489 cumulative IPC: 0.363132 (Simulation time: 0 hr 11 min 23 sec) 
Heartbeat CPU 0 instructions: 210000002 cycles: 456474068 heartbeat IPC: 0.408454 cumulative IPC: 0.365668 (Simulation time: 0 hr 11 min 52 sec) 
*** Reached end of trace for Core: 0 Repeating trace: traces/spec2k17/srv_9.champsimtrace.xz
Heartbeat CPU 0 instructions: 220000000 cycles: 473606357 heartbeat IPC: 0.583693 cumulative IPC: 0.373883 (Simulation time: 0 hr 12 min 17 sec) 
Heartbeat CPU 0 instructions: 230000000 cycles: 513261240 heartbeat IPC: 0.252176 cumulative IPC: 0.36412 (Simulation time: 0 hr 12 min 55 sec) 
Heartbeat CPU 0 instructions: 240000002 cycles: 538673034 heartbeat IPC: 0.393518 cumulative IPC: 0.365558 (Simulation time: 0 hr 13 min 24 sec) 
*** Reached end of trace for Core: 0 Repeating trace: traces/spec2k17/srv_9.champsimtrace.xz
Heartbeat CPU 0 instructions: 250000003 cycles: 554523199 heartbeat IPC: 0.630908 cumulative IPC: 0.37341 (Simulation time: 0 hr 13 min 49 sec) 
Finished CPU 0 instructions: 200000000 cycles: 535604225 cumulative IPC: 0.37341 (Simulation time: 0 hr 13 min 49 sec) 

ChampSim completed all CPUs

Region of Interest Statistics

CPU 0 cumulative IPC: 0.37341 instructions: 200000000 cycles: 535604225
ITLB TOTAL     ACCESS:   41154881  HIT:   41014769  MISS:     140112  HIT %:    99.6595  MISS %:   0.340451   MPKI: 0.70056
ITLB LOAD TRANSLATION ACCESS:   41154881  HIT:   41014769  MISS:     140112  HIT %:    99.6595  MISS %:   0.340451   MPKI: 0.70056
ITLB PREFETCH  REQUESTED:          0  ISSUED:          0  USEFUL:          0  USELESS:          0
ITLB USEFUL LOAD PREFETCHES:          0 PREFETCH ISSUED TO LOWER LEVEL:          0  ACCURACY: -nan
ITLB TIMELY PREFETCHES:          0 LATE PREFETCHES: 0 DROPPED PREFETCHES: 0
ITLB PREFETCHES SAME FILL-ORIGIN LEVEL: 0 DIFFERENT FILL-ORIGIN LEVEL: 0
ITLB AVERAGE MISS LATENCY: 19.9259 cycles
ITLB RQ	ACCESS:   44727819	FORWARD:          0	MERGED:    3534179	TO_CACHE:   41193640

DTLB TOTAL     ACCESS:   45675070  HIT:   37165677  MISS:    8509393  HIT %:    81.3697  MISS %:    18.6303   MPKI: 42.547
DTLB LOAD TRANSLATION ACCESS:   45675070  HIT:   37165677  MISS:    8509393  HIT %:    81.3697  MISS %:    18.6303   MPKI: 42.547
DTLB PREFETCH  REQUESTED:          0  ISSUED:          0  USEFUL:          0  USELESS:          0
DTLB USEFUL LOAD PREFETCHES:          0 PREFETCH ISSUED TO LOWER LEVEL:          0  ACCURACY: -nan
DTLB TIMELY PREFETCHES:          0 LATE PREFETCHES: 0 DROPPED PREFETCHES: 0
DTLB PREFETCHES SAME FILL-ORIGIN LEVEL: 0 DIFFERENT FILL-ORIGIN LEVEL: 0
DTLB AVERAGE MISS LATENCY: 9.79694 cycles
DTLB RQ	ACCESS:   59063646	FORWARD:          0	MERGED:   13275286	TO_CACHE:   45788360

STLB TOTAL     ACCESS:   39760159  HIT:   39658307  MISS:     101852  HIT %:    99.7438  MISS %:   0.256166   MPKI: 0.50926
STLB LOAD TRANSLATION ACCESS:    8649505  HIT:    8567163  MISS:      82342  HIT %:     99.048  MISS %:   0.951985   MPKI: 0.41171
STLB TRANSLATION FROM L1D PREFETCHER ACCESS:   31110654  HIT:   31091144  MISS:      19510  HIT %:    99.9373  MISS %:  0.0627116   MPKI: 0.09755
STLB PREFETCH  REQUESTED:          0  ISSUED:          0  USEFUL:      19031  USELESS:        485
STLB USEFUL LOAD PREFETCHES:      19031 PREFETCH ISSUED TO LOWER LEVEL:          0  ACCURACY: inf
STLB TIMELY PREFETCHES:      19031 LATE PREFETCHES: 82 DROPPED PREFETCHES: 1925234
STLB PREFETCHES SAME FILL-ORIGIN LEVEL: 0 DIFFERENT FILL-ORIGIN LEVEL: 0
STLB AVERAGE MISS LATENCY: 58382 cycles
STLB RQ	ACCESS:   50918185	FORWARD:          0	MERGED:    8989325	TO_CACHE:   41928860

STLB Hit, L1D data hit: 0
STLB Hit, L2C data hit: 0
STLB Hit, LLC data hit: 0
STLB Hit, LLC data miss: 0
STLB STLB hints to L2: 0
L1D TOTAL     ACCESS:   95705672  HIT:   69350892  MISS:   26354780  HIT %:    72.4627  MISS %:    27.5373   MPKI: 131.774
L1D LOAD      ACCESS:   43535343  HIT:   29720875  MISS:   13814468  HIT %:    68.2684  MISS %:    31.7316   MPKI: 69.0723
L1D RFO       ACCESS:   14941226  HIT:   14617264  MISS:     323962  HIT %:    97.8318  MISS %:    2.16824   MPKI: 1.61981
L1D PREFETCH  ACCESS:   37229103  HIT:   25012753  MISS:   12216350  HIT %:     67.186  MISS %:     32.814   MPKI: 61.0817
AGUS PREFETCH L1 MISS: 0
L1D PREFETCH  REQUESTED:   85903760  ISSUED:   85897993  USEFUL:     755022  USELESS:   11461408
L1D USEFUL LOAD PREFETCHES:     755022 PREFETCH ISSUED TO LOWER LEVEL:   12224059  ACCURACY: 6.17652
L1D TIMELY PREFETCHES:     755022 LATE PREFETCHES: 7709 DROPPED PREFETCHES: 3023628
L1D PREFETCHES SAME FILL-ORIGIN LEVEL: 12224059 DIFFERENT FILL-ORIGIN LEVEL: 0
L1D AVERAGE MISS LATENCY: 81649.6 cycles
L1D RQ	ACCESS:   59117200	FORWARD:          0	MERGED:   15373059	TO_CACHE:   43635080
L1D WQ	ACCESS:   18280129	FORWARD:     109079	MERGED:    2851563	TO_CACHE:   15428566
L1D PQ	ACCESS:   43629313	FORWARD:          0	MERGED:    1360615	TO_CACHE:   42268680

L1D UNIQUE REGIONS ACCESSED: 0
L1D REGIONS CONFLICTS: 0
L1D Cross Page Prefetch Requests: 14100234
L1D Same Page Prefetch Requests: 40197700
L1D ROI Sum of L1D PQ occupancy: 628914384
L1D PREFETCHES PUSHED FROM L2C: 0
L1I TOTAL     ACCESS:   44484739  HIT:   43792231  MISS:     692508  HIT %:    98.4433  MISS %:    1.55673   MPKI: 3.46254
L1I LOAD      ACCESS:   44484739  HIT:   43792231  MISS:     692508  HIT %:    98.4433  MISS %:    1.55673   MPKI: 3.46254
L1I PREFETCH  REQUESTED:          0  ISSUED:          0  USEFUL:          0  USELESS:          0
L1I USEFUL LOAD PREFETCHES:          0 PREFETCH ISSUED TO LOWER LEVEL:          0  ACCURACY: -nan
L1I TIMELY PREFETCHES:          0 LATE PREFETCHES: 0 DROPPED PREFETCHES: 0
L1I PREFETCHES SAME FILL-ORIGIN LEVEL: 0 DIFFERENT FILL-ORIGIN LEVEL: 0
L1I AVERAGE MISS LATENCY: 51.0426 cycles
L1I RQ	ACCESS:   72908695	FORWARD:          0	MERGED:   28180876	TO_CACHE:   44727819

BTB TOTAL     ACCESS:   41124945  HIT:   38918337  MISS:    2206608  HIT %:    94.6344  MISS %:    5.36562   MPKI: 11.033
BTB BRANCH_DIRECT_JUMP	ACCESS:    1846527  HIT:    1816854  MISS:      29673
BTB BRANCH_INDIRECT	ACCESS:   24302760  HIT:   22906212  MISS:    1396548
BTB BRANCH_CONDITIONAL	ACCESS:    9638323  HIT:    9593198  MISS:      45125
BTB BRANCH_DIRECT_CALL	ACCESS:    2098550  HIT:    2045389  MISS:      53161
BTB BRANCH_INDIRECT_CALL	ACCESS:     567786  HIT:     550196  MISS:      17590
BTB BRANCH_RETURN	ACCESS:    2670999  HIT:    2006488  MISS:     664511
BTB BRANCH_OTHER ACCESS:          0  HIT:          0  MISS:          0

L2C TOTAL     ACCESS:   30072792  HIT:   28106971  MISS:    1965821  HIT %:    93.4631  MISS %:    6.53688   MPKI: 9.82911
L2C LOAD      ACCESS:   14499244  HIT:   13770094  MISS:     729150  HIT %:    94.9711  MISS %:    5.02888   MPKI: 3.64575
L2C DATA LOAD MPKI: 2.26381
L2C INSTRUCTION LOAD MPKI: 1.38194
L2C RFO       ACCESS:     323962  HIT:     262584  MISS:      61378  HIT %:     81.054  MISS %:     18.946   MPKI: 0.30689
L2C PREFETCH  ACCESS:   12224058  HIT:   11107160  MISS:    1116898  HIT %:    90.8631  MISS %:    9.13688   MPKI: 5.58449
AGUS PREFETCH L1 MISS: 0
L2C DATA PREFETCH MPKI: 5.58449
L2C INSTRUCTION PREFETCH MPKI: 0
L2C WRITEBACK ACCESS:     474961  HIT:     469411  MISS:       5550  HIT %:    98.8315  MISS %:    1.16852   MPKI: 0.02775
L2C LOAD TRANSLATION ACCESS:     102288  HIT:      54726  MISS:      47562  HIT %:    53.5019  MISS %:    46.4981   MPKI: 0.23781
L2C TRANSLATION FROM L1D PREFETCHER ACCESS:    2448279  HIT:    2442996  MISS:       5283  HIT %:    99.7842  MISS %:   0.215784   MPKI: 0.026415
L2C PREFETCH  REQUESTED:          0  ISSUED:          0  USEFUL:      25816  USELESS:    1095064
L2C USEFUL LOAD PREFETCHES:      25816 PREFETCH ISSUED TO LOWER LEVEL:    1116899  ACCURACY: 2.3114
L2C TIMELY PREFETCHES:      25816 LATE PREFETCHES: 0 DROPPED PREFETCHES: 0
L2C PREFETCHES SAME FILL-ORIGIN LEVEL: 0 DIFFERENT FILL-ORIGIN LEVEL: 0
L2C AVERAGE MISS LATENCY: 125.524 cycles
L2C RQ	ACCESS:   17373796	FORWARD:          0	MERGED:          0	TO_CACHE:   17373773
L2C WQ	ACCESS:     474961	FORWARD:         23	MERGED:          0	TO_CACHE:     474961
L2C PQ	ACCESS:   12224059	FORWARD:          0	MERGED:          0	TO_CACHE:   12224059

L2C Instructions Evicting Data 185726
L2C Translations Evicting Data 38266
L2C Data Evicting Data 1406723
L2C Instructions Evicting Instructions 77653
L2C Translations Evicting Instructions 12423
L2C Data Evicting Instructions 186737
L2C Instructions Evicting Translations 13009
L2C Translations Evicting Translations 2156
L2C Data Evicting Translations 37578
L2C Dense regions hint from L2: 0
PSCL5 TOTAL     ACCESS:    2027086  HIT:    2027086  MISS:          0  HIT %:        100  MISS %:          0   MPKI: 0
PSCL5 LOAD TRANSLATION ACCESS:      82260  HIT:      82260  MISS:          0  HIT %:        100  MISS %:          0   MPKI: 0
PSCL5 TRANSLATION FROM L1D PREFETCHER ACCESS:    1944826  HIT:    1944826  MISS:          0  HIT %:        100  MISS %:          0   MPKI: 0
PSCL5 PREFETCH  REQUESTED:          0  ISSUED:          0  USEFUL:          0  USELESS:          0
PSCL5 USEFUL LOAD PREFETCHES:          0 PREFETCH ISSUED TO LOWER LEVEL:          0  ACCURACY: -nan
PSCL5 TIMELY PREFETCHES:          0 LATE PREFETCHES: 0 DROPPED PREFETCHES: 0
PSCL5 PREFETCHES SAME FILL-ORIGIN LEVEL: 0 DIFFERENT FILL-ORIGIN LEVEL: 0

PSCL4 TOTAL     ACCESS:    1989546  HIT:    1989448  MISS:         98  HIT %:    99.9951  MISS %: 0.00492575   MPKI: 0.00049
PSCL4 LOAD TRANSLATION ACCESS:      72939  HIT:      72841  MISS:         98  HIT %:    99.8656  MISS %:   0.134359   MPKI: 0.00049
PSCL4 TRANSLATION FROM L1D PREFETCHER ACCESS:    1916607  HIT:    1916607  MISS:          0  HIT %:        100  MISS %:          0   MPKI: 0
PSCL4 PREFETCH  REQUESTED:          0  ISSUED:          0  USEFUL:          0  USELESS:          0
PSCL4 USEFUL LOAD PREFETCHES:          0 PREFETCH ISSUED TO LOWER LEVEL:          0  ACCURACY: -nan
PSCL4 TIMELY PREFETCHES:          0 LATE PREFETCHES: 0 DROPPED PREFETCHES: 0
PSCL4 PREFETCHES SAME FILL-ORIGIN LEVEL: 0 DIFFERENT FILL-ORIGIN LEVEL: 0

PSCL3 TOTAL     ACCESS:    2026304  HIT:    2026074  MISS:        230  HIT %:    99.9886  MISS %:  0.0113507   MPKI: 0.00115
PSCL3 LOAD TRANSLATION ACCESS:      82078  HIT:      81848  MISS:        230  HIT %:    99.7198  MISS %:   0.280221   MPKI: 0.00115
PSCL3 TRANSLATION FROM L1D PREFETCHER ACCESS:    1944226  HIT:    1944226  MISS:          0  HIT %:        100  MISS %:          0   MPKI: 0
PSCL3 PREFETCH  REQUESTED:          0  ISSUED:          0  USEFUL:          0  USELESS:          0
PSCL3 USEFUL LOAD PREFETCHES:          0 PREFETCH ISSUED TO LOWER LEVEL:          0  ACCURACY: -nan
PSCL3 TIMELY PREFETCHES:          0 LATE PREFETCHES: 0 DROPPED PREFETCHES: 0
PSCL3 PREFETCHES SAME FILL-ORIGIN LEVEL: 0 DIFFERENT FILL-ORIGIN LEVEL: 0

PSCL2 TOTAL     ACCESS:    1441513  HIT:    1421252  MISS:      20261  HIT %:    98.5945  MISS %:    1.40554   MPKI: 0.101305
PSCL2 LOAD TRANSLATION ACCESS:      82807  HIT:      62546  MISS:      20261  HIT %:    75.5323  MISS %:    24.4677   MPKI: 0.101305
PSCL2 TRANSLATION FROM L1D PREFETCHER ACCESS:    1358706  HIT:    1358706  MISS:          0  HIT %:        100  MISS %:          0   MPKI: 0
PSCL2 PREFETCH  REQUESTED:          0  ISSUED:          0  USEFUL:          0  USELESS:          0
PSCL2 USEFUL LOAD PREFETCHES:          0 PREFETCH ISSUED TO LOWER LEVEL:          0  ACCURACY: -nan
PSCL2 TIMELY PREFETCHES:          0 LATE PREFETCHES: 0 DROPPED PREFETCHES: 0
PSCL2 PREFETCHES SAME FILL-ORIGIN LEVEL: 0 DIFFERENT FILL-ORIGIN LEVEL: 0

LLC TOTAL     ACCESS:    2140788  HIT:     581343  MISS:    1559445  HIT %:    27.1556  MISS %:    72.8444   MPKI: 7.79723
LLC LOAD      ACCESS:     729150  HIT:     274019  MISS:     455131  HIT %:    37.5806  MISS %:    62.4194   MPKI: 2.27565
LLC RFO       ACCESS:      61378  HIT:      11605  MISS:      49773  HIT %:    18.9074  MISS %:    81.0926   MPKI: 0.248865
LLC PREFETCH  ACCESS:    1116898  HIT:     130762  MISS:     986136  HIT %:    11.7076  MISS %:    88.2924   MPKI: 4.93068
AGUS PREFETCH L1 MISS: 0
LLC WRITEBACK ACCESS:     180517  HIT:     142205  MISS:      38312  HIT %:    78.7765  MISS %:    21.2235   MPKI: 0.19156
LLC LOAD TRANSLATION ACCESS:      47562  HIT:      20507  MISS:      27055  HIT %:    43.1164  MISS %:    56.8836   MPKI: 0.135275
LLC TRANSLATION FROM L1D PREFETCHER ACCESS:       5283  HIT:       2245  MISS:       3038  HIT %:    42.4948  MISS %:    57.5052   MPKI: 0.01519
LLC PREFETCH  REQUESTED:          0  ISSUED:          0  USEFUL:      19949  USELESS:     971770
LLC USEFUL LOAD PREFETCHES:      19949 PREFETCH ISSUED TO LOWER LEVEL:     986137  ACCURACY: 2.02294
LLC TIMELY PREFETCHES:      19949 LATE PREFETCHES: 0 DROPPED PREFETCHES: 0
LLC PREFETCHES SAME FILL-ORIGIN LEVEL: 0 DIFFERENT FILL-ORIGIN LEVEL: 0
LLC AVERAGE MISS LATENCY: 120.522 cycles
LLC RQ	ACCESS:     843373	FORWARD:          0	MERGED:          0	TO_CACHE:     843373
LLC WQ	ACCESS:     180517	FORWARD:          0	MERGED:          0	TO_CACHE:     180517
LLC PQ	ACCESS:    1116899	FORWARD:          0	MERGED:          0	TO_CACHE:    1116899

LLC Dense regions hint to LLC: 0

RAW hits: 6958817
Loads Generated: 66076020
Loads sent to L1D: 59117200
Stores Generated: 18280112
Stores sent to L1D: 18280129
Major fault: 0 Minor fault: 9438
Allocated PAGES: 9438
ucb ended
-----------------------------------------------------------------------------------------------------------------------------------------------------------------------------------------------------
Offsets elements: 15004978 -15005231 -2200614770286 3 2200629775825 -15005542 -2200614747024 2200629752255 -2200629773937 -24 22 2200614768708 -2200614769945 2200614769945 -2200614756094 -13940 2200629775495 -230 3221272 -3221272 -2200614747025 2200629752425 -2200629775680 23232 2200629752229 1 -2200629766224 13994 2200629752230 218 -15005400 15005400 -2200629775695 2200629775695 -218 217 248 -2200629752668 -4 2200629752208 -15005183 15005183 -15030482 -8390683 -9 23421174 -23421170 -2200606352793 2200614744500 -2200614744500 2200606352780 8391720 -1 15029507 -2200629772676 2200629773278 -15031042 15031044 -452 -2200629752428 -13994 2 2200629752426 -3 2200629752228 200 -11125202 11125203 -11125203 11125204 -11125204 -7936 7936 -7935 11132936 -2200629775458 2200618650457 11125202 -11125201 -52013 -25 15 11177026 -11177037 11 -2200618598437 2200618650231 -3879936 -2200614770295 2200629775521 386 -11177457 -15 11177506 -2200629775932 1642 2200629773817 -2200629773816 471 -471 -11177024 -11 -2200618598355 -84664 2200618683033 -13 62757 -62757 11177501 -11177501 62758 -62756 62759 -62732 11177441 36 -11177508 31 51765 10964 -2200618661195 2200629775721 -11114523 11114746 -11235926 81252 39924 -2200618659716 2200618619808 -22850 22849 11154621 -31 -11154620 11154622 -2 33 -32 -11154619 11154623 -11154624 11154619 -34 -2200629774430 13186 2200618606623 -15028910 15028909 11154183 436 -436 -11177036 -11177505 -606884 -2200618076121 2200629860516 -15005648 3221256 -3221256 15005646 -470 -11783919 11783920 -11177035 -2200618683018 2200629860526 435 -11177446 11177012 201 -11133139 11133139 -11133140 11133140 6400 97024 1024 -98305 11126995 -203 2200629775659 -11133138 -43687 25 -3828556 3872000 -2200618642295 -11176659 -2200618598853 2200629775898 -2200629775907 2200618598866 11176655 -11176670 11177090 470 -2200629775860 2200629775861 -11176608 14 -2200618683437 2200618683440 62342 -62345 11114747 -11114745 -62340 -62341 62343 -62316 11177025 -11133648 18900 -2200618661198 2200618661197 11235703 -11154450 16 11154620 -11154623 -11114713 2200618597375 62341 22433 11154617 32 -2200629761278 -3874289 15028472 35 -473 -11176620 -610604 11787694 -11177089 -607300 -11784390 11784390 -15005646 3221257 607301 11177092 -15005176 15005177 -2200629860054 2200629860489 -434 -11176596 11176595 -11126739 11126739 -11126740 -255 255 11029513 2200618648921 11126738 -11126737 -49983 26 -3828660 3878400 -2200618648695 -11176941 -2200618598957 2200618598961 -2200618598955 2200629775941 -420 422 2200629774288 -2200629775390 2200618598886 -2200618683539 2200618683553 62237 11114744 -11114744 -62237 11176981 -11176985 62238 -62236 62239 -62212 11176921 -11176988 49709 -11114526 81253 -11114716 2200629774429 -11176950 417 -416 520 -520 -39908 -11154654 440 -443 438 -437 474 2200629760806 -15028472 3851956 11176985 -2200629860510 2200618076121 -2200618076124 607405 11176988 -15005177 -2200614854877 -11176926 11176492 -11126995 -11126996 11126996 97280 -97280 97281 -720128 720127 11028692 -11027209 11027209 2200618648665 11126994 -11126993 514302 3072 -568375 10 -3827360 2200618648439 -50773 -2200618597657 2200629775512 -2200629775521 2200629775907 -386 -11177851 -2200618597644 2200629775930 -2200629774290 -1572 2200629775860 -2200629774289 2200618596014 -2200618682239 2200618682253 63538 -63541 -63536 -63537 63539 -63512 11178221 -11127504 12756 2200618596179 63537 -519 -104 23629 11154655 15028470 -11177816 11178285 3827361 11177815 473 -472 -11178226 11177792 -11029715 11029514 11029714 17 -2200629776112 2200629752227 653 -652 -199 -2200629772629 2200614743167 15029463 -2200614755956 -14339 -381 2200629773939 -48 -15004932 15005399 2200614747300 15005148 -2200629752420 2200614747277 15005360 -2200629775938 2200614770578 -2200614770578 2200629775975 -251 -17 18 -15005147 -16 -10609636 10609619 -15005131 15005130 -15005129 15005129 -19 -2200629752405 2200629752424 -15005130 -15005148 -15005398 3221279 -3221279 15005381 -11784109 11784109 -10613476 10613476 -10609889 10609889 -11028708 -1024 -720127 11749859 -11749860 720128 11029715 -11029716 1025 11029732 -15005146 15005128 -2200629775707 2200629775725 272 -15005652 -2200629775926 2200629775938 -427 -15004980 15005361 34 11784389 -11784389 -2200618076120 2200629860509 -11772797 -3232598 -2200614855115 -2200618076123 2200629860510 -2200629860511 2200629860511 -11784385 11784387 -15005393 -2200614855120 -8 2200629860491 -11784356 -2200618076138 2200629860495 -15005366 3850743 -11154622 -3850745 3850745 39906 -3890653 3828310 -62342 104 -780 1300 -1300 1197 -62344 -3828311 15005398 -15005397 3828311 -607304 15005613 -11784336 -2200617991491 -11177078 -3221269 3828569 11783917 -11176630 43444 -3871750 -250 3828556 -43407 43407 -3872000 3828602 607300 -3828352 3828322 -2200618568497 2200618568481 -43409 43643 -236 11133646 650744 11133612 -11163561 30185 11133409 -11133647 -43444 239 -2200618619377 2200618619382 -2200615038408 2200615038407 -2200615038407 2200615038408 11133138 -11133142 5 4 -249 43399 250 -288223780707025274 70 -70 8331860 -8331862 8331861 -8331861 -8331791 -72 8331863 -33694 406 206 33083 -33302 4895 -4893 33300 288223780698693160 -2200618729396 2637 2200618726759 -43431 43675 -2200618642459 2200618642459 -5 -244 -2200615036128 2200615036125 -288223780698726980 -8027690 8027958 -30 4758 -3524 -8299695 8457855 -8457926 270604 -23216 8050906 -8050906 8055902 -8055902 4996 -4914 -8298375 8298172 607 4812 -8303587 270606 -6 8032070 -8302655 2443872 5854402 82 4914 -4510 -607 5419 -8303588 270601 -4398019174482 4398027207470 -8032978 -10 -270597 -4397629451798 -1297264 -388154782 389424868 4397637937333 -4397637910182 130380540 -130410465 -439593 -827719 131677780 -131677785 131677785 4397507529634 -8458359 -4397629451796 4397633149230 -3697433 -4397630749060 4397631019659 -4397631019657 4397630749058 6856665 -6856665 4397637605725 -4397629921341 4397629921340 -4397629451823 -29925 4397636340030 -4397636340030 4397637940107 -4397637940107 4397637940106 -4397637940106 29924 4397629481750 8458357 -154992 145512 313 22337 -4976 -8466550 4397629451798 -4397629478976 27178 -469476 469476 4397629451799 8458356 -8458355 7212240 -4397636664040 4397629451800 -4397629921344 469544 -27178 -442299 442324 -513638 513637 -513637 71218 7 442411 -442406 -71230 513635 -442400 -71235 513634 -513648 71255 81 4397629921264 -388982498 388926275 -474 -388926310 4398027207173 145511 -4398027352689 4398027352690 17673 -17361 17360 4976 -8471526 270598 -4397631019656 1297260 27151 29925 4397636722831 1217276 130850057 -131622089 -55687 -131622098 131622098 -131677783 4397639207417 -4760925 -3697434 -4397630693373 -23032 23032 131622089 -131645121 -32655 -131645126 131645130 -131645129 -32654 -4397507529634 4397499071275 -4397630716405 131645121 4397502768717 -4397634384647 -61846 -131615939 4397634384648 -4397634384648 -61844 -8187759 4397630749056 6856666 -4397637543879 4397630957819 -4397629692829 4397636279009 -6856784 -4398027362130 4398019174380 8027680 404 -8027569 8032988 -8303589 8298440 4240 -8032072 8032057 -4253 -4397637720643 4397629692840 8040826 20418 -33330 30 1204 5182 152978 -8457855 270537 7756984 275780 312 -8466557 8298292 -8032984 270989 -8298512 8331791 -8331860 -8061254 275700 -4729 -8298561 8331859 -8331859 -8331790 8331790 288223780698693159 2200618729396 -288223780707025018 288223780707025268 -2200618727009 -23 2200618727021 -239 -43660 43410 43668 8 2200618642215 -2200614994755 -288221580083654996 238 -43443 -2200614994721 2200615038164 -2200615038164 2200615038406 -11133144 6 -11133380 -2200629775941 2200618642537 -242 -43421 43421 11133381 -11176809 11176808 519680 3587 -523267 104448 -104448 11133156 -11029732 -103424 103423 721152 103424 -103430 2200618619283 11133597 -11133596 -11133143 11133143 -11133137 -243 43417 2200629775926 12 381 -11177090 2200618640877 11133411 -11133411 -2200618642450 2200618598782 11177078 -2200618683435 2200618683437 62344 -11177088 103 -83 43654 -43675 62345 -11114747 -119354 57016 62340 -62339 62339 -11177056 -11133612 -43442 2200618661195 11114526 -11235924 21240 18666 22435 -11154651 -15028908 3895531 -43678 11177055 -2200629860491 11177057 11154624 -11154621 -21240 -18667 -43570 43572 -43573 -62238 780 1301 -11176981 62236 -62240 11176984 -11133413 -11133613 -43423 -2200618598791 116 43431 11176513 -11176526 49740 -6164 -43340 37 -141 150 43294 -43398 -2200618568527 2200618568601 -49705 49939 -49844 49844 11127246 -11126975 11127010 -11127010 -238 -2200618625538 2200618625538 -49979 49984 -2200615022482 2200615022481 -2200615022481 2200615022482 -11126738 -11126741 -49703 49695 -288223780707048058 -71 8348326 -8348327 8348325 -8348328 72 8314481 33369 -33163 33164 -33383 33381 288223780698699479 -2200618735796 2200618733159 -49727 49727 244 -2200618648859 2200618648859 2200618648858 -288223780698733380 288221580083687270 -288221580083692028 -5792774 5793978 -8316079 8474239 -8210346 2258208 -2258208 8050714 -8055710 -8315163 8319974 -8319971 2522174 5796880 -5796886 -2522153 8314658 -5854426 5859422 -8315160 8319973 -5797804 -4398021409666 4398021409676 -2522165 8319969 -8319969 -4397629435414 -1264582 1234657 -389452019 4398027362201 130410465 -130410464 -772032 -23033 131645126 4397634390807 -4397634390807 -23031 4397639174763 -8474742 8474742 -4397630700021 -131645130 4397630700020 3713818 -3713817 4397637910156 -5952575 -4397633222188 4397630700019 6873112 -6873112 -4397637573133 4397630700021 -4397630676989 4397630676988 6873158 -4397636308597 4397629465366 -4397629465365 -4977 -8482934 4397629435414 -4397629462592 469475 4397629435416 8474740 -8474739 -4397629435417 -389451935 388982392 71220 442418 71226 71230 442406 -513636 71235 442400 -513635 71241 442393 71336 4397629904880 -4398018887353 389451937 -389424797 388982498 -56223 4398027207178 -8482935 2522166 -4397633222185 1264605 -1264580 4397637957486 -4397636722831 772032 131645124 4397502768709 -23030 4397639174762 -8474743 -4397630670830 131615930 -29189 -4397639207417 61845 -61845 131677775 -131677775 32655 -131677784 4397634446493 -4397634446492 4397630700017 6873113 -4397637605787 4397637605724 -4350876 -2522172 8474741 389481554 4397631928010 5792506 -5117 -337 -5792648 917 -909 -5796881 5792620 -4397637720637 4397631928018 5799145 -6416 -8148267 8181649 -32177 158160 -8474239 8319685 -5797580 5943091 -421271 421583 17361 -8482938 8314676 -5797800 5521821 270968 -8314896 8348256 -8348326 8348328 -5826151 5797500 -8314945 8043995 304329 -8348324 8348324 -8348256 8348255 288223780698699478 2200618735796 -288223780707047802 288223780707048052 -2200618733409 2200618733406 -2200618733429 2200618733182 -49706 49706 49971 2200618648615 49943 -2200615022476 2200615022238 -288223780698699479 -49739 -2200614972499 -2200615022238 2200615022480 -11126980 242 -2200618648937 -11127004 11126981 -11176698 -7 11176705 11126740 513280 -513280 516867 -516867 98048 11028708 -11126756 -6401 -97024 11029733 -11126743 11126742 -49740 49713 -2200618648680 -11176986 11176998 -11176952 2200618647277 11127011 -11127011 -2200618648850 2200618683541 62240 -11176984 -1299 20 -21 62241 -62234 -57120 11234101 -62235 62235 -12502 11127248 -2200618540018 2200618621271 11154450 -11154434 27640 12266 22331 -11154618 11154651 15028908 -11126977 -49974 11176952 11176953 -27640 -12267 -51270 51272 -51273 -63538 63536 63540 -12269 11127014 -11127012 11127213 -11176932 -2200618598895 -1288 11177826 -11127042 492 -51040 -1263 9 50994 -2200618618325 2200618568631 -1330 50784 -50749 50983 -49484 49484 11127502 -11127231 11127266 -11127266 -2200618625282 2200618625282 -51023 51028 -2200615051747 2200615051748 -11126998 -50747 50739 -288223780707129722 8430260 -8430261 8430191 -8430262 8430261 -8430191 8430263 -33790 612 -206 33385 -33398 28503 -33396 33396 288223780698699208 -2200618735540 2200618732903 -50771 50771 -2200618634238 2200618634238 11127317 -2200629761417 -101278 2200618735378 11127508 -11127508 -2200618648439 2200629775908 -429 -11126799 -2200618648601 2200618648603 -2200615044604 2200615044603 -50784 -11178286 11178251 -11178252 11178253 -11127225 -27395 -11114714 -11178284 506378 -506378 39908 11114713 518891 -518889 518888 -569916 63541 -779 569916 -569136 50247 -51026 11114745 -11114746 -12512 518889 569917 -506379 506376 10608368 -11127258 -51030 -11127469 -50763 -2200618597595 10608358 -10608357 10607897 -10607910 -518885 -247 519132 -4060 -565856 569962 -519169 -2200618618069 2200619137217 -519148 -50738 569886 4095 -4097 10612430 -10612188 -566098 565856 10612396 -10612153 10612188 -10612187 246 10611919 -10611918 10611922 -10611919 10611920 -10611920 -1137664 11749584 -11033300 -716284 11749583 -10611921 -419330 419332 10611921 -10612164 -246 -24400 24648 -24399 24400 245 -24645 24645 -24646 24649 -29663 -469635 -2200618724629 60536 2200606363562 12805093 -2200619228990 2200606423897 12805091 -5268 5265 23 19 -20 -5273 -29659 -2200619124317 2200619124317 -2200619124507 2200619129525 -5018 29663 -24643 -24644 -24308 24308 4097 -4105 -288223780708398463 76 -75 -4398018051672 4398018051674 244174 8911378 -8911381 -244181 8071711 -4397637176973 4397629105262 -4397628589033 -333650 -204262 4397629126945 -4397629105264 -9920 4397629078446 -4397628971305 -107143 4397629115186 -4397629105263 500272 -500271 -4397629126945 21682 4397629068525 8108449 -4397636660772 -474373 4397629063434 796969 -321512 4397628629808 -4397628908498 4397628871759 -4397628271556 11264406 4397626354221 -4397626353279 4397617042945 -4397617042945 -12062319 475457 256358 -256359 60335 4397636280706 -7711234 9310334 -9310334 9310332 -4397638415597 4397629105266 -4397629105265 475454 4397628629811 -4397629115190 4397629115189 -4397629105267 4397629105267 9310331 -9310328 9310328 -9310327 9155335 -4397638420137 4397638442786 -22337 -4397638416360 4397638433721 -9318521 -4397629119291 489476 11526527 -11330506 11330507 118911046 -118911081 -11330505 11330505 -11330507 11330064 -498 -12096739 4397629384805 -4397629384805 551590 -526146 130926538 -130322214 -389540748 389708185 4397628587593 -4397628833215 130400398 -130400392 -512391 590569 -608450 775887 -187212 4397637840959 -4397628530628 4397628530629 -4397628343412 -169486 -3021 20159 -605660 580169 5518 -603567 605311 36275 4397628721893 -4397628721446 11404042 -11459409 -586668 530265 -551596 130951988 34179 -638505 638439 133290 11298494 -11298493 4397628343408 -4397628532627 11459408 4397617317404 -4397629345600 11448028 -12028383 12028383 4397624784550 1599006 -9310338 -4397628512982 -588433 4397629101417 -4397628513987 4397637824323 -4398018051598 389535501 4397637826431 -1598996 -4397636227073 -389535862 4398018051597 -4397628445273 4397637755606 -9310332 -4397628521252 11478305 -11511359 180852 -140553 -7247 4397628765424 -4397628617624 -728156 -759344 4397637569660 1601623 -4397638411939 4397629101609 7708709 -4397636229960 4397636232577 -4397637572280 1487504 11331800 -11331802 4397628617630 -4397628833214 -526151 -388936340 388936340 192501 -85360 4397636719238 -7467014 -4397628617626 11331801 4397629158968 -4398018837012 4398022020539 -4398022020539 4398018295667 8911388 -8911378 -244174 -4397617041649 -401009877 389678076 4397628373448 -4397629860952 1334921 4397628526032 -4397628554397 -389497021 4398018295598 3724869 5182434 -4398027202838 4398018051352 3969046 5186525 -9155571 9310156 -4397626354042 4397617043959 9155498 -9155498 288223780708398209 -2200619250617 2200619250617 4084 -574296 570461 -566777 -21395 587923 -499051 -12300522 -2200606361319 2200618661842 -12286114 -14405 12300519 499297 -1101036 1101035 -499300 -2200618724627 2200618724628 -12300525 12799824 -12799829 12799580 -1101727 602675 2200619223927 -499296 499298 -12799828 -2200606423896 60334 -2200619159245 2200619159248 -5513 5511 -5511 -2200619149172 2200619149413 5269 17830 -23122 23122 -23121 -468117 468115 5287 -2200619169080 2200619169072 2200619163785 5290 17832 -17852 17851 -23124 -502154 525278 -23364 23363 -17854 -2200619159246 2200619153974 23126 -491212 468086 23125 -23125 5292 -5269 -5291 -241 2200619159266 -499299 -12286115 -14414 14414 499299 1100790 249 3838 -3838 4088 -503140 499302 -288223780708398388 -4398018051416 4398018295592 -8911388 -4397629860951 4397617041648 -4397617041648 -11331801 4397628617629 -4398018295705 4398018051525 -4397628589034 -192501 107141 4397629008044 -4397628373450 4397628373450 -4397628373449 -4397617041650 4397617041649 -9310330 -4397628521254 4397628521253 -4397617042947 4397617042946 -4397617042946 4397617042947 -4397617043389 443 -11330508 -745835 12075899 4397617287567 -4397629363466 12075898 118910153 4397498046329 86904 -4397617043386 118910157 -118910177 4397616956468 -4397616954286 4397617285385 -4397617287124 1739 -11332247 11332246 -12078081 12074342 118913172 -130389484 130389490 -2209 4397498378149 -4397498375939 4397506185788 -4397636643064 130400392 167437 -210887 4397627824028 -4397627824030 210890 32951 4397637620795 -4397626355275 4397617044938 -4397628372894 4397636106639 -4397636078986 -176006 176007 11304039 -11304039 -176007 11476309 -11476309 4397630574113 5985136 -4397636559249 -544709 4397631118822 -4397636960683 292410 -377770 481998 -104228 4397628874448 -4397628756849 -1348274 4397637569659 -4397636774669 130934927 -130390218 -4397630574113 4397636559250 -5985137 -557913 4397631132026 -4397630574114 -561124 4397629326549 -4397630105123 1339699 4397636229960 -4397636229961 -4397636483826 -75425 4397628521242 -4397617041197 4397625079205 -4397625080944 11331807 -11455084 11452843 4397617043877 -4397617043876 942 4397617042934 9310341 -4397626353276 4397617042935 244182 -4397617286619 4397617286619 -4397630105122 4397637569658 -7708718 7708718 -7708717 7708717 -4397628345236 -26127 4397628371365 9310339 -4397626351538 4397617041200 7711624 -7711625 -4397628521245 4397628521246 -4397617044937 4397626355275 9310338 -9310337 -4397617044938 4397636575279 -4397636499855 -75424 -4397628345240 -11330166 11330165 4397626351539 -4397626351541 4397617285388 1736 -11332244 11332244 -12078079 49996 -49996 49995 130935564 4397506202274 -4397506202269 4397498377897 -4397498377897 -130455318 130455319 -54921 34728 43452 4397628219175 -4397628219175 -62436 27653 4397637655578 -4397638379623 724046 -724045 -791660 4397629860943 -4397617041201 4397625109759 -4397625111496 -12059447 728939 -123277 130362938 -130239661 -2241 4397626353275 4397617042936 8068559 -4397625110997 -12818505 4397629860942 -4397628496721 -1364221 1515706 -1515708 1515708 -1515707 1489581 4397636082989 -4397637572569 131727159 4397498133783 4538503 4771838 -9310341 -4397628345237 11304036 -11304036 11304037 -11330163 11327988 4397626353714 -4397626353716 11330068 4397617287563 12075904 -12075903 130935442 4397506202395 -4397506202390 4397498378018 -4397498378017 -130455198 34734 130365664 130455193 -130420467 4397628252127 -4397628252126 27652 4397637655579 -4397638379622 4397628345232 -4397629102380 -758559 791661 130935498 4397498133781 -4397629860940 4397637906647 -4397637906647 778575 585647 -1364222 1364222 -57571 -1306653 1339700 -586278 586279 -1339701 -1339700 1339701 -4397631913814 -580356 4397629345780 -4397630105121 759341 4397636810316 -4397636810316 4397630105124 -4397630105120 4397637569656 -4397637569659 4397629860935 9310347 -9066153 4397636634727 -4397506234335 4397628587594 -4397629359366 526151 245622 130154776 218769 4397636415958 -4397636556549 4397628510839 -4397628370248 -744926 771772 -1517534 1517535 32950 -59797 -1490688 1550486 -1550485 1550485 4397630363326 -4397630361022 -1552790 4397631913811 -4397630363326 -4397631913811 -4397630363327 4397630363327 -2052879 9310348 -4398027361652 4398018051305 -4397629860934 4397629860934 -4397638363201 4397629297042 -244186 -4397628310451 -1550482 1550482 2304 4397628552333 -4397630105116 1552784 -1552789 1552789 4397636016866 -7708723 -4397629860939 4397629860939 4397630105125 4397637906640 -8045711 -4397629860938 4397630574114 8049751 -4397637115695 -794992 -109024 -1230677 -483817 4397631057931 5996872 -4397636972421 406944 -492304 495052 16247 -16246 16248 4397636546481 -4397506180532 -130365951 4397636546483 -4397636546483 4397636546484 -4397636546484 4397628496731 -4397629860936 5996874 4397628496729 -1808691 -4397630105115 4397637569651 -7464536 -4397630105114 4397637569650 -7708724 -1601623 -4397636791085 4397629082362 7708723 -4397629860937 131714767 4397505854887 -4397637569660 4397629860937 -4397617043370 4397625089080 -4397625088642 11455084 4397617042928 498 4397617042432 -4397628345230 36938 4397628308292 7711754 1598590 -9310344 4397502672286 -4397628345233 11301860 -11264922 11264921 4397626353717 -4397626353718 4397617287565 -4397628858241 -1246873 1246873 4397628858247 -4397628858247 25032 -551593 4397637218042 -4397636588271 4397628755031 -4397498432817 -130154777 -245621 4397636666449 -4397506266057 -453176 -151160 771773 4397636420834 -7833240 -4397629208207 374992 -130820009 419617 245615 -167437 -497795 665232 -4397637192607 604336 4397628343402 244186 -4397630105113 4397630105113 4397637569649 -4397636849331 4397629384795 791653 4397636777996 -4397637569672 4397637569672 -4397636849332 -71336 513622 4397628626989 -4397629069288 4397638379632 -4397628345232 -36938 34784 -34784 4397628589426 -4397628554642 -27652 4397628372886 7711628 1598717 9310344 -9310343 -4397637655577 -26126 26126 34783 -34783 4397628589425 4397628372889 7711625 26127 4397636399273 -4397636399274 -389706011 389740794 4397636084514 -7711622 -4397617043390 444 4397625138259 -4397625138702 -4397628617632 4397629119286 -4397617043388 118910168 4397498046251 9397301 -4397626353720 4397617043388 -4397498133235 -118910153 4397498046294 -4397616956471 2182 -1739 12078081 12078080 4397626351538 -4397626355276 4397498131771 -4397617044943 3737 -1737 4397628373449 4397629119284 -4397617041206 -12078078 4397638429618 4397629069288 -4397498133303 -421 -130935564 130935568 4397498046573 -4318 -4397616949747 -2175 4397626353716 -4397626353715 12075903 4397617287562 12075902 118910078 4397498046162 -4397616956239 4397626353715 -118909547 4397616951922 -4397616951922 4397626353718 4397617287564 -526555 4397629384802 7778233 -4397636611448 -374998 453176 4397636611442 -4397636533264 -604336 4397628343407 -1287920 -7778233 -419617 130820009 -4397628587594 -4397637137600 -9310339 -4397617041636 4397617285816 -4397498375033 4397498375033 -4397630105112 4397637569648 -4397630105111 791651 4397639171295 -4397639171274 -4397637569651 791655 4397636850878 -4397636779542 4397629140617 9310337 -9310336 9310336 -9310335 9310335 -9310333 442 11330508 -442 -4397626353717 439 12075901 -12025905 130935540 -130935540 12025904 -4397626353714 437 -12025907 130935573 -130935573 130935577 -118909677 118909677 -118907504 4397626351540 -4397626351539 -1738 4397617285386 -335053 -4397629028413 12078078 -12028084 12028085 118907502 -130935587 12025903 4397626353720 4397617287124 -4397498377879 -130239753 -12075899 130985592 -118909693 130985591 460 -459 4397498046788 -3968 3968 -4397616956482 4397498046268 -4397616956442 441 12076340 4397617287125 11330504 4397628373446 -4397617043392 4397617043891 -4397628373456 -745833 549811 196023 4397637528791 -4397637680341 4397637825852 9155334 -9318522 -4397629119289 4397629363466 -244175 -4397628569037 4397637879365 -9310326 4397629363465 -4397628831177 4397628587002 532431 4397628586860 -4398018051182 4398018051181 244173 9066153 -4397638429618 532287 -518086 -10114 -4089 4089 -4090 4090 4397638270536 -9318524 -4397629119288 550252 -550253 -518274 -9921 9922 -9924 485379 4397628629810 -9922 510195 4397628604992 -4397629115187 4397637186897 -7827530 -4397629349445 182581 333650 -419010 -107141 4397636826379 -4397636826379 4397629359365 -4397629349441 4397629890782 -4397629890781 35834 -35834 4397629105263 3969038 5331816 22336 -9318530 3969041 5332144 -9301111 -76 288223780708398210 -2200619250622 2200619250622 -4084 -570212 574296 3684 566774 -588171 563866 24306 -24306 -2200619139439 -13995 2200619140513 
Potential of Offsets elements: 28.895 28.895 28.895 1622.9 28.895 28.895 28.895 28.895 28.895 2008.9 2533.09 28.895 28.895 28.895 28.895 28.895 28.895 28.895 28.895 28.895 28.895 28.895 28.895 28.895 28.895 2368.9 28.895 28.895 28.895 28.895 28.895 28.895 28.895 28.895 28.895 28.895 28.895 28.895 1134.9 28.895 28.895 28.895 28.895 28.895 249.895 28.895 28.895 28.895 28.895 28.895 28.895 28.895 181.432 28.895 29.895 28.895 28.895 28.895 28.895 28.895 28.895 621.895 28.895 976.895 28.895 33.895 28.895 28.895 28.895 28.895 28.895 28.895 28.895 28.895 28.895 28.895 28.895 28.895 28.895 28.895 56.895 71.895 28.895 28.895 245.895 28.895 28.895 28.895 28.895 28.895 28.895 28.895 404.895 28.895 28.895 28.895 28.895 28.895 29.895 28.895 28.895 768.895 28.895 28.895 28.895 676.895 28.895 28.895 28.895 28.895 28.895 28.895 28.895 28.895 28.895 974.895 28.895 28.895 28.895 28.895 28.895 28.895 28.895 28.895 28.895 28.895 28.895 28.895 28.895 28.895 28.895 28.895 28.895 28.895 28.895 1625.9 28.895 28.895 28.895 28.895 28.895 28.895 28.895 28.895 28.895 28.895 28.895 28.895 28.895 28.895 28.895 28.895 28.895 28.895 28.895 28.895 28.895 28.895 28.895 28.895 28.895 28.895 28.895 28.895 28.895 28.895 28.895 28.895 28.895 50.895 28.895 28.895 28.895 28.895 28.895 28.895 28.895 28.895 28.895 28.895 28.895 28.895 28.895 28.895 28.895 28.895 28.895 28.895 28.895 28.895 28.895 28.895 28.895 28.895 28.895 28.895 28.895 28.895 28.895 36.895 28.895 28.895 28.895 28.895 28.895 28.895 28.895 28.895 28.895 28.895 28.895 28.895 28.895 28.895 28.895 28.895 28.895 28.895 28.895 28.895 28.895 28.895 28.895 28.895 28.895 34.895 28.895 28.895 28.895 48.895 28.895 28.895 28.895 28.895 28.895 28.895 28.895 28.895 28.895 28.895 28.895 28.895 28.895 28.895 28.895 28.895 28.895 28.895 28.895 28.895 28.895 28.895 28.895 28.895 28.895 28.895 28.895 28.895 28.895 131.895 28.895 28.895 28.895 28.895 28.895 28.895 28.895 28.895 28.895 28.895 28.895 28.895 28.895 28.895 28.895 28.895 28.895 28.895 28.895 28.895 28.895 28.895 28.895 28.895 28.895 28.895 28.895 28.895 28.895 28.895 28.895 28.895 28.895 28.895 28.895 29.895 28.895 28.895 28.895 28.895 28.895 28.895 28.895 28.895 28.895 28.895 28.895 28.895 28.895 28.895 28.895 28.895 28.895 28.895 28.895 28.895 28.895 28.895 28.895 28.895 28.895 28.895 28.895 28.895 28.895 28.895 28.895 28.895 28.895 28.895 28.895 28.895 28.895 28.895 228.895 28.895 28.895 28.895 28.895 28.895 28.895 28.895 28.895 28.895 28.895 28.895 28.895 28.895 28.895 28.895 28.895 28.895 28.895 28.895 28.895 28.895 28.895 28.895 28.895 28.895 28.895 28.895 28.895 28.895 28.895 28.895 28.895 28.895 28.895 28.895 28.895 28.895 28.895 28.895 28.895 28.895 28.895 28.895 28.895 28.895 28.895 28.895 28.895 28.895 28.895 28.895 28.895 28.895 28.895 28.895 28.895 28.895 28.895 29.895 28.895 28.895 28.895 28.895 28.895 28.895 28.895 28.895 28.895 28.895 28.895 28.895 28.895 34.895 28.895 28.895 28.895 28.895 28.895 28.895 28.895 28.895 28.895 28.895 28.895 28.895 28.895 28.895 28.895 28.895 28.895 28.895 28.895 28.895 28.895 28.895 28.895 28.895 28.895 28.895 28.895 28.895 28.895 28.895 28.895 28.895 28.895 28.895 28.895 28.895 28.895 31.895 28.895 28.895 28.895 28.895 28.895 28.895 28.895 28.895 28.895 28.895 28.895 28.895 28.895 28.895 28.895 28.895 28.895 28.895 28.895 28.895 28.895 28.895 233.895 28.895 28.895 28.895 28.895 28.895 28.895 28.895 28.895 28.895 28.895 28.895 28.895 28.895 29.895 28.895 28.895 28.895 28.895 28.895 28.895 28.895 28.895 28.895 28.895 28.895 28.895 28.895 28.895 28.895 28.895 28.895 28.895 28.895 28.895 46.895 28.895 28.895 28.895 28.895 28.895 28.895 28.895 28.895 28.895 28.895 28.895 28.895 28.895 28.895 28.895 28.895 28.895 28.895 28.895 28.895 28.895 28.895 28.895 28.895 28.895 28.895 28.895 28.895 28.895 28.895 735.895 725.895 28.895 28.895 40.895 28.895 54.895 40.895 28.895 28.895 28.895 28.895 28.895 28.895 28.895 28.895 28.895 28.895 28.895 28.895 28.895 28.895 28.895 28.895 38.895 29.895 28.895 28.895 28.895 28.895 28.895 936.895 28.895 28.895 28.895 28.895 28.895 28.895 28.895 28.895 28.895 28.895 28.895 28.895 28.895 28.895 28.895 28.895 28.895 28.895 28.895 28.895 28.895 28.895 28.895 28.895 28.895 28.895 272.895 28.895 28.895 28.895 28.895 28.895 28.895 28.895 28.895 28.895 28.895 28.895 28.895 28.895 28.895 314.895 28.895 28.895 28.895 28.895 28.895 28.895 28.895 28.895 28.895 28.895 28.895 28.895 28.895 28.895 28.895 28.895 28.895 28.895 28.895 28.895 28.895 28.895 28.895 28.895 28.895 28.895 28.895 28.895 28.895 28.895 28.895 28.895 28.895 28.895 28.895 28.895 28.895 28.895 28.895 28.895 28.895 28.895 28.895 28.895 28.895 28.895 28.895 28.895 28.895 28.895 28.895 28.895 28.895 28.895 28.895 28.895 28.895 28.895 28.895 28.895 28.895 28.895 28.895 28.895 28.895 140.895 28.895 28.895 28.895 28.895 28.895 28.895 28.895 28.895 28.895 28.895 28.895 28.895 28.895 28.895 28.895 28.895 28.895 28.895 28.895 28.895 28.895 28.895 28.895 28.895 28.895 28.895 28.895 28.895 28.895 28.895 28.895 28.895 28.895 28.895 28.895 28.895 28.895 28.895 28.895 28.895 28.895 28.895 28.895 28.895 28.895 28.895 28.895 28.895 28.895 28.895 28.895 28.895 28.895 28.895 28.895 28.895 28.895 28.895 28.895 28.895 28.895 399.895 28.895 28.895 28.895 28.895 28.895 28.895 28.895 28.895 28.895 28.895 28.895 28.895 28.895 28.895 28.895 28.895 28.895 28.895 28.895 28.895 28.895 28.895 28.895 28.895 28.895 28.895 28.895 28.895 28.895 28.895 28.895 28.895 28.895 28.895 28.895 28.895 28.895 28.895 28.895 28.895 28.895 28.895 28.895 28.895 28.895 28.895 28.895 28.895 28.895 28.895 28.895 28.895 28.895 164.895 28.895 28.895 28.895 28.895 28.895 144.895 28.895 28.895 28.895 28.895 28.895 28.895 28.895 28.895 28.895 28.895 311.895 28.895 28.895 28.895 28.895 28.895 28.895 28.895 28.895 28.895 28.895 28.895 28.895 28.895 28.895 28.895 28.895 28.895 28.895 28.895 28.895 28.895 28.895 28.895 28.895 28.895 28.895 28.895 28.895 28.895 28.895 124.895 28.895 28.895 28.895 28.895 28.895 28.895 28.895 28.895 28.895 28.895 28.895 28.895 28.895 28.895 28.895 28.895 28.895 28.895 28.895 28.895 28.895 28.895 28.895 28.895 28.895 28.895 28.895 28.895 28.895 28.895 28.895 28.895 28.895 28.895 28.895 28.895 28.895 28.895 28.895 28.895 28.895 28.895 28.895 28.895 28.895 28.895 28.895 28.895 28.895 28.895 28.895 28.895 28.895 28.895 28.895 28.895 28.895 28.895 28.895 28.895 28.895 28.895 28.895 28.895 66.895 110.895 28.895 28.895 28.895 28.895 28.895 28.895 28.895 28.895 28.895 28.895 28.895 28.895 28.895 28.895 28.895 28.895 28.895 28.895 28.895 28.895 28.895 28.895 28.895 28.895 28.895 28.895 28.895 29.895 28.895 28.895 28.895 28.895 29.895 28.895 28.895 28.895 28.895 28.895 28.895 28.895 28.895 28.895 28.895 28.895 28.895 28.895 28.895 28.895 28.895 28.895 28.895 28.895 28.895 28.895 28.895 28.895 28.895 28.895 28.895 28.895 28.895 28.895 28.895 28.895 28.895 28.895 28.895 28.895 28.895 28.895 28.895 28.895 28.895 28.895 28.895 28.895 28.895 28.895 28.895 28.895 28.895 28.895 28.895 28.895 28.895 28.895 28.895 28.895 28.895 28.895 28.895 28.895 28.895 28.895 28.895 28.895 28.895 28.895 28.895 28.895 28.895 28.895 28.895 28.895 28.895 28.895 28.895 28.895 28.895 28.895 28.895 28.895 28.895 28.895 28.895 28.895 28.895 28.895 28.895 28.895 28.895 28.895 28.895 28.895 28.895 28.895 28.895 28.895 28.895 28.895 28.895 28.895 28.895 28.895 28.895 28.895 28.895 28.895 28.895 28.895 28.895 28.895 28.895 28.895 28.895 28.895 28.895 28.895 28.895 28.895 28.895 28.895 28.895 28.895 28.895 28.895 28.895 28.895 28.895 28.895 28.895 28.895 28.895 28.895 28.895 28.895 28.895 28.895 28.895 28.895 28.895 28.895 28.895 28.895 28.895 28.895 28.895 28.895 28.895 52.895 28.895 28.895 28.895 28.895 28.895 28.895 28.895 28.895 28.895 28.895 28.895 28.895 28.895 28.895 28.895 28.895 28.895 28.895 28.895 28.895 28.895 28.895 28.895 28.895 28.895 28.895 28.895 28.895 28.895 28.895 28.895 28.895 28.895 28.895 28.895 28.895 28.895 28.895 28.895 28.895 28.895 28.895 28.895 28.895 28.895 28.895 28.895 28.895 28.895 28.895 28.895 28.895 28.895 28.895 28.895 28.895 28.895 28.895 28.895 136.895 28.895 28.895 28.895 28.895 218.895 28.895 28.895 28.895 28.895 28.895 28.895 28.895 28.895 28.895 28.895 28.895 28.895 28.895 28.895 28.895 28.895 28.895 28.895 28.895 28.895 28.895 28.895 28.895 28.895 28.895 28.895 28.895 28.895 29.895 301.895 28.895 28.895 28.895 28.895 28.895 28.895 28.895 28.895 34.895 28.895 28.895 28.895 28.895 28.895 28.895 28.895 28.895 28.895 28.895 28.895 28.895 28.895 28.895 28.895 28.895 28.895 28.895 28.895 28.895 28.895 28.895 28.895 28.895 28.895 28.895 28.895 28.895 28.895 28.895 28.895 28.895 28.895 226.895 51.895 36.895 29.895 28.895 28.895 28.895 28.895 28.895 28.895 28.895 28.895 28.895 28.895 28.895 28.895 28.895 28.895 28.895 28.895 28.895 28.895 28.895 28.895 28.895 28.895 28.895 28.895 28.895 28.895 28.895 28.895 28.895 28.895 28.895 28.895 28.895 28.895 28.895 28.895 28.895 28.895 28.895 28.895 28.895 28.895 28.895 28.895 28.895 28.895 28.895 28.895 28.895 28.895 28.895 28.895 28.895 28.895 28.895 28.895 28.895 28.895 28.895 28.895 28.895 28.895 28.895 28.895 28.895 28.895 28.895 28.895 28.895 28.895 28.895 28.895 28.895 28.895 28.895 28.895 28.895 28.895 28.895 28.895 28.895 28.895 28.895 28.895 28.895 28.895 28.895 28.895 28.895 28.895 28.895 28.895 28.895 28.895 28.895 28.895 28.895 130.895 28.895 168.895 28.895 28.895 28.895 28.895 28.895 28.895 28.895 28.895 28.895 28.895 28.895 28.895 28.895 28.895 28.895 28.895 28.895 28.895 28.895 28.895 28.895 28.895 28.895 28.895 28.895 28.895 28.895 28.895 28.895 28.895 28.895 28.895 28.895 28.895 28.895 28.895 28.895 28.895 28.895 28.895 28.895 28.895 28.895 28.895 28.895 28.895 28.895 28.895 29.895 32.895 31.895 28.895 28.895 37.895 74.895 28.895 40.895 41.895 52.895 36.895 28.895 28.895 28.895 28.895 28.895 28.895 28.895 28.895 28.895 28.895 28.895 28.895 28.895 28.895 87.895 86.895 28.895 28.895 28.895 30.895 28.895 28.895 28.895 28.895 28.895 28.895 28.895 28.895 28.895 28.895 28.895 28.895 28.895 28.895 28.895 28.895 28.895 28.895 28.895 28.895 28.895 28.895 28.895 28.895 28.895 28.895 28.895 28.895 28.895 28.895 28.895 28.895 28.895 28.895 28.895 28.895 28.895 28.895 28.895 28.895 28.895 28.895 28.895 28.895 28.895 28.895 28.895 28.895 28.895 28.895 28.895 28.895 28.895 28.895 28.895 28.895 28.895 28.895 28.895 28.895 28.895 28.895 28.895 28.895 28.895 28.895 28.895 28.895 28.895 28.895 28.895 28.895 28.895 28.895 28.895 28.895 28.895 32.895 28.895 28.895 28.895 28.895 28.895 28.895 28.895 28.895 28.895 28.895 28.895 28.895 28.895 28.895 28.895 28.895 28.895 28.895 28.895 28.895 28.895 28.895 28.895 28.895 28.895 28.895 28.895 28.895 28.895 28.895 28.895 28.895 28.895 28.895 28.895 28.895 28.895 28.895 28.895 28.895 28.895 28.895 28.895 28.895 28.895 28.895 28.895 28.895 28.895 28.895 28.895 28.895 28.895 28.895 28.895 28.895 28.895 28.895 28.895 28.895 28.895 28.895 28.895 28.895 28.895 28.895 28.895 28.895 28.895 28.895 28.895 28.895 28.895 28.895 28.895 28.895 28.895 28.895 28.895 28.895 28.895 28.895 28.895 28.895 28.895 28.895 28.895 28.895 28.895 28.895 28.895 28.895 28.895 28.895 28.895 28.895 28.895 28.895 28.895 28.895 28.895 28.895 28.895 28.895 28.895 28.895 28.895 28.895 28.895 28.895 28.895 28.895 28.895 28.895 28.895 28.895 28.895 28.895 28.895 28.895 28.895 28.895 28.895 28.895 28.895 28.895 28.895 28.895 28.895 28.895 28.895 28.895 28.895 28.895 28.895 28.895 28.895 28.895 28.895 28.895 28.895 28.895 28.895 28.895 28.895 28.895 28.895 28.895 28.895 28.895 28.895 28.895 28.895 28.895 28.895 28.895 28.895 28.895 28.895 28.895 28.895 28.895 28.895 28.895 28.895 28.895 28.895 28.895 28.895 28.895 28.895 28.895 28.895 28.895 28.895 28.895 28.895 28.895 28.895 28.895 28.895 28.895 28.895 28.895 28.895 28.895 28.895 28.895 28.895 28.895 28.895 28.895 28.895 28.895 28.895 28.895 28.895 28.895 28.895 28.895 28.895 28.895 28.895 28.895 28.895 28.895 28.895 28.895 28.895 28.895 28.895 28.895 28.895 34.895 28.895 28.895 28.895 28.895 28.895 28.895 28.895 28.895 28.895 28.895 28.895 28.895 28.895 28.895 28.895 28.895 28.895 28.895 28.895 28.895 28.895 28.895 28.895 28.895 28.895 28.895 28.895 28.895 28.895 28.895 28.895 28.895 28.895 44.895 28.895 28.895 28.895 28.895 28.895 28.895 28.895 28.895 28.895 28.895 28.895 28.895 28.895 28.895 28.895 28.895 28.895 28.895 28.895 28.895 28.895 28.895 28.895 28.895 28.895 28.895 28.895 28.895 28.895 28.895 28.895 28.895 28.895 28.895 28.895 28.895 28.895 28.895 28.895 28.895 28.895 28.895 28.895 28.895 28.895 28.895 28.895 28.895 28.895 28.895 28.895 28.895 28.895 28.895 28.895 28.895 28.895 28.895 28.895 28.895 28.895 28.895 28.895 28.895 28.895 28.895 28.895 28.895 28.895 28.895 28.895 28.895 28.895 28.895 28.895 28.895 28.895 28.895 28.895 28.895 28.895 28.895 28.895 28.895 28.895 28.895 28.895 28.895 28.895 32.895 28.895 28.895 28.895 28.895 28.895 28.895 28.895 28.895 28.895 28.895 28.895 28.895 28.895 28.895 28.895 28.895 28.895 28.895 28.895 28.895 28.895 28.895 28.895 28.895 28.895 28.895 28.895 28.895 28.895 28.895 28.895 28.895 28.895 28.895 28.895 28.895 28.895 28.895 28.895 28.895 28.895 28.895 28.895 28.895 28.895 28.895 28.895 28.895 28.895 28.895 28.895 28.895 28.895 28.895 28.895 28.895 28.895 28.895 28.895 28.895 28.895 28.895 28.895 28.895 28.895 28.895 28.895 28.895 28.895 28.895 28.895 28.895 28.895 28.895 28.895 28.895 28.895 28.895 28.895 28.895 28.895 28.895 28.895 28.895 28.895 28.895 28.895 28.895 28.895 28.895 28.895 28.895 28.895 28.895 28.895 28.895 28.895 28.895 28.895 28.895 28.895 28.895 28.895 28.895 28.895 28.895 28.895 28.895 28.895 28.895 28.895 28.895 28.895 28.895 28.895 28.895 28.895 28.895 28.895 28.895 28.895 28.895 28.895 28.895 28.895 28.895 28.895 28.895 28.895 28.895 28.895 28.895 28.895 28.895 28.895 28.895 28.895 28.895 28.895 28.895 28.895 28.895 28.895 28.895 28.895 28.895 28.895 28.895 28.895 28.895 28.895 28.895 28.895 28.895 28.895 28.895 28.895 28.895 28.895 28.895 28.895 28.895 28.895 28.895 28.895 28.895 28.895 28.895 28.895 28.895 28.895 28.895 28.895 28.895 28.895 28.895 28.895 28.895 28.895 28.895 28.895 28.895 28.895 28.895 28.895 28.895 28.895 28.895 28.895 28.895 28.895 28.895 28.895 28.895 28.895 28.895 28.895 28.895 28.895 28.895 28.895 28.895 28.895 28.895 28.895 28.895 28.895 28.895 28.895 28.895 28.895 28.895 28.895 28.895 28.895 28.895 28.895 28.895 28.895 28.895 28.895 28.895 28.895 28.895 28.895 28.895 28.895 28.895 28.895 28.895 28.895 28.895 28.895 28.895 28.895 28.895 28.895 28.895 28.895 28.895 28.895 28.895 28.895 28.895 28.895 28.895 28.895 28.895 28.895 28.895 28.895 28.895 28.895 28.895 28.895 28.895 28.895 28.895 28.895 34.895 28.895 28.895 28.895 28.895 28.895 28.895 28.895 28.895 28.895 28.895 28.895 28.895 28.895 28.895 28.895 28.895 28.895 28.895 28.895 28.895 28.895 28.895 28.895 28.895 28.895 28.895 28.895 28.895 28.895 28.895 28.895 28.895 28.895 28.895 28.895 28.895 28.895 28.895 28.895 28.895 28.895 28.895 28.895 28.895 28.895 28.895 28.895 28.895 28.895 28.895 28.895 28.895 28.895 28.895 28.895 28.895 28.895 28.895 28.895 28.895 28.895 28.895 28.895 28.895 28.895 28.895 28.895 28.895 28.895 28.895 28.895 28.895 28.895 28.895 28.895 28.895 28.895 28.895 28.895 28.895 28.895 28.895 28.895 28.895 28.895 28.895 28.895 28.895 28.895 28.895 44.895 28.895 28.895 28.895 28.895 28.895 28.895 28.895 28.895 28.895 28.895 28.895 28.895 28.895 28.895 28.895 28.895 28.895 28.895 28.895 28.895 28.895 28.895 28.895 28.895 28.895 28.895 28.895 28.895 28.895 28.895 28.895 32.895 28.895 28.895 28.895 28.895 28.895 28.895 28.895 28.895 28.895 28.895 28.895 28.895 28.895 28.895 28.895 28.895 28.895 28.895 28.895 28.895 28.895 28.895 28.895 28.895 28.895 28.895 28.895 28.895 28.895 28.895 28.895 28.895 28.895 28.895 28.895 28.895 28.895 28.895 28.895 28.895 28.895 28.895 28.895 28.895 28.895 28.895 28.895 28.895 28.895 28.895 28.895 28.895 28.895 28.895 28.895 28.895 28.895 28.895 40.895 28.895 46.895 28.895 28.895 28.895 28.895 28.895 28.895 28.895 28.895 28.895 28.895 28.895 28.895 28.895 28.895 28.895 28.895 28.895 28.895 28.895 28.895 28.895 28.895 28.895 28.895 28.895 28.895 28.895 28.895 28.895 28.895 28.895 28.895 28.895 28.895 28.895 28.895 28.895 34.895 28.895 28.895 28.895 28.895 28.895 28.895 30.895 28.895 28.895 28.895 28.895 28.895 28.895 28.895 28.895 28.895 28.895 28.895 28.895 28.895 28.895 28.895 28.895 28.895 28.895 28.895 28.895 28.895 28.895 28.895 28.895 28.895 28.895 28.895 28.895 28.895 28.895 28.895 28.895 28.895 28.895 28.895 28.895 28.895 28.895 28.895 28.895 28.895 28.895 28.895 28.895 28.895 28.895 28.895 28.895 28.895 28.895 28.895 28.895 28.895 28.895 28.895 28.895 28.895 28.895 28.895 28.895 28.895 28.895 28.895 28.895 28.895 28.895 28.895 28.895 28.895 28.895 28.895 28.895 28.895 28.895 28.895 28.895 32.895 28.895 28.895 28.895 28.895 28.895 28.895 28.895 28.895 28.895 28.895 28.895 28.895 28.895 28.895 28.895 
rewards of Offsets elements: 0 0 0 1594 0 0 0 0 0 1980 2533 0 0 0 0 0 0 0 0 0 0 0 0 0 0 2340 0 0 0 0 0 0 0 0 0 0 0 0 1106 0 0 0 0 0 221 0 0 0 0 0 0 0 161 0 1 0 0 0 0 0 0 593 0 948 0 5 0 0 0 0 0 0 0 0 0 0 0 0 0 0 28 43 0 0 217 0 0 0 0 0 0 0 376 0 0 0 0 0 1 0 0 740 0 0 0 648 0 0 0 0 0 0 0 0 0 946 0 0 0 0 0 0 0 0 0 0 0 0 0 0 0 0 0 0 0 1597 0 0 0 0 0 0 0 0 0 0 0 0 0 0 0 0 0 0 0 0 0 0 0 0 0 0 0 0 0 0 0 0 0 22 0 0 0 0 0 0 0 0 0 0 0 0 0 0 0 0 0 0 0 0 0 0 0 0 0 0 0 0 0 8 0 0 0 0 0 0 0 0 0 0 0 0 0 0 0 0 0 0 0 0 0 0 0 0 0 6 0 0 0 20 0 0 0 0 0 0 0 0 0 0 0 0 0 0 0 0 0 0 0 0 0 0 0 0 0 0 0 0 0 103 0 0 0 0 0 0 0 0 0 0 0 0 0 0 0 0 0 0 0 0 0 0 0 0 0 0 0 0 0 0 0 0 0 0 0 1 0 0 0 0 0 0 0 0 0 0 0 0 0 0 0 0 0 0 0 0 0 0 0 0 0 0 0 0 0 0 0 0 0 0 0 0 0 0 200 0 0 0 0 0 0 0 0 0 0 0 0 0 0 0 0 0 0 0 0 0 0 0 0 0 0 0 0 0 0 0 0 0 0 0 0 0 0 0 0 0 0 0 0 0 0 0 0 0 0 0 0 0 0 0 0 0 0 1 0 0 0 0 0 0 0 0 0 0 0 0 0 6 0 0 0 0 0 0 0 0 0 0 0 0 0 0 0 0 0 0 0 0 0 0 0 0 0 0 0 0 0 0 0 0 0 0 0 0 0 3 0 0 0 0 0 0 0 0 0 0 0 0 0 0 0 0 0 0 0 0 0 0 205 0 0 0 0 0 0 0 0 0 0 0 0 0 1 0 0 0 0 0 0 0 0 0 0 0 0 0 0 0 0 0 0 0 0 18 0 0 0 0 0 0 0 0 0 0 0 0 0 0 0 0 0 0 0 0 0 0 0 0 0 0 0 0 0 0 707 697 0 0 12 0 26 12 0 0 0 0 0 0 0 0 0 0 0 0 0 0 0 0 10 1 0 0 0 0 0 908 0 0 0 0 0 0 0 0 0 0 0 0 0 0 0 0 0 0 0 0 0 0 0 0 0 0 244 0 0 0 0 0 0 0 0 0 0 0 0 0 0 286 0 0 0 0 0 0 0 0 0 0 0 0 0 0 0 0 0 0 0 0 0 0 0 0 0 0 0 0 0 0 0 0 0 0 0 0 0 0 0 0 0 0 0 0 0 0 0 0 0 0 0 0 0 0 0 0 0 0 0 0 0 0 0 0 0 112 0 0 0 0 0 0 0 0 0 0 0 0 0 0 0 0 0 0 0 0 0 0 0 0 0 0 0 0 0 0 0 0 0 0 0 0 0 0 0 0 0 0 0 0 0 0 0 0 0 0 0 0 0 0 0 0 0 0 0 0 0 371 0 0 0 0 0 0 0 0 0 0 0 0 0 0 0 0 0 0 0 0 0 0 0 0 0 0 0 0 0 0 0 0 0 0 0 0 0 0 0 0 0 0 0 0 0 0 0 0 0 0 0 0 0 136 0 0 0 0 0 116 0 0 0 0 0 0 0 0 0 0 283 0 0 0 0 0 0 0 0 0 0 0 0 0 0 0 0 0 0 0 0 0 0 0 0 0 0 0 0 0 0 96 0 0 0 0 0 0 0 0 0 0 0 0 0 0 0 0 0 0 0 0 0 0 0 0 0 0 0 0 0 0 0 0 0 0 0 0 0 0 0 0 0 0 0 0 0 0 0 0 0 0 0 0 0 0 0 0 0 0 0 0 0 0 0 0 38 82 0 0 0 0 0 0 0 0 0 0 0 0 0 0 0 0 0 0 0 0 0 0 0 0 0 0 0 1 0 0 0 0 1 0 0 0 0 0 0 0 0 0 0 0 0 0 0 0 0 0 0 0 0 0 0 0 0 0 0 0 0 0 0 0 0 0 0 0 0 0 0 0 0 0 0 0 0 0 0 0 0 0 0 0 0 0 0 0 0 0 0 0 0 0 0 0 0 0 0 0 0 0 0 0 0 0 0 0 0 0 0 0 0 0 0 0 0 0 0 0 0 0 0 0 0 0 0 0 0 0 0 0 0 0 0 0 0 0 0 0 0 0 0 0 0 0 0 0 0 0 0 0 0 0 0 0 0 0 0 0 0 0 0 0 0 0 0 0 0 0 0 0 0 0 0 0 0 0 0 24 0 0 0 0 0 0 0 0 0 0 0 0 0 0 0 0 0 0 0 0 0 0 0 0 0 0 0 0 0 0 0 0 0 0 0 0 0 0 0 0 0 0 0 0 0 0 0 0 0 0 0 0 0 0 0 0 0 0 0 108 0 0 0 0 190 0 0 0 0 0 0 0 0 0 0 0 0 0 0 0 0 0 0 0 0 0 0 0 0 0 0 0 0 1 273 0 0 0 0 0 0 0 0 6 0 0 0 0 0 0 0 0 0 0 0 0 0 0 0 0 0 0 0 0 0 0 0 0 0 0 0 0 0 0 0 0 0 198 23 8 1 0 0 0 0 0 0 0 0 0 0 0 0 0 0 0 0 0 0 0 0 0 0 0 0 0 0 0 0 0 0 0 0 0 0 0 0 0 0 0 0 0 0 0 0 0 0 0 0 0 0 0 0 0 0 0 0 0 0 0 0 0 0 0 0 0 0 0 0 0 0 0 0 0 0 0 0 0 0 0 0 0 0 0 0 0 0 0 0 0 0 0 0 0 0 0 0 0 102 0 140 0 0 0 0 0 0 0 0 0 0 0 0 0 0 0 0 0 0 0 0 0 0 0 0 0 0 0 0 0 0 0 0 0 0 0 0 0 0 0 0 0 0 0 0 0 0 0 0 1 4 3 0 0 9 46 0 12 13 24 8 0 0 0 0 0 0 0 0 0 0 0 0 0 0 59 58 0 0 0 2 0 0 0 0 0 0 0 0 0 0 0 0 0 0 0 0 0 0 0 0 0 0 0 0 0 0 0 0 0 0 0 0 0 0 0 0 0 0 0 0 0 0 0 0 0 0 0 0 0 0 0 0 0 0 0 0 0 0 0 0 0 0 0 0 0 0 0 0 0 0 0 0 0 0 0 0 0 4 0 0 0 0 0 0 0 0 0 0 0 0 0 0 0 0 0 0 0 0 0 0 0 0 0 0 0 0 0 0 0 0 0 0 0 0 0 0 0 0 0 0 0 0 0 0 0 0 0 0 0 0 0 0 0 0 0 0 0 0 0 0 0 0 0 0 0 0 0 0 0 0 0 0 0 0 0 0 0 0 0 0 0 0 0 0 0 0 0 0 0 0 0 0 0 0 0 0 0 0 0 0 0 0 0 0 0 0 0 0 0 0 0 0 0 0 0 0 0 0 0 0 0 0 0 0 0 0 0 0 0 0 0 0 0 0 0 0 0 0 0 0 0 0 0 0 0 0 0 0 0 0 0 0 0 0 0 0 0 0 0 0 0 0 0 0 0 0 0 0 0 0 0 0 0 0 0 0 0 0 0 0 0 0 0 0 0 0 0 0 0 0 0 0 0 0 0 0 0 0 0 0 0 0 0 0 0 0 0 0 0 0 0 6 0 0 0 0 0 0 0 0 0 0 0 0 0 0 0 0 0 0 0 0 0 0 0 0 0 0 0 0 0 0 0 0 0 16 0 0 0 0 0 0 0 0 0 0 0 0 0 0 0 0 0 0 0 0 0 0 0 0 0 0 0 0 0 0 0 0 0 0 0 0 0 0 0 0 0 0 0 0 0 0 0 0 0 0 0 0 0 0 0 0 0 0 0 0 0 0 0 0 0 0 0 0 0 0 0 0 0 0 0 0 0 0 0 0 0 0 0 0 0 0 0 0 0 4 0 0 0 0 0 0 0 0 0 0 0 0 0 0 0 0 0 0 0 0 0 0 0 0 0 0 0 0 0 0 0 0 0 0 0 0 0 0 0 0 0 0 0 0 0 0 0 0 0 0 0 0 0 0 0 0 0 0 0 0 0 0 0 0 0 0 0 0 0 0 0 0 0 0 0 0 0 0 0 0 0 0 0 0 0 0 0 0 0 0 0 0 0 0 0 0 0 0 0 0 0 0 0 0 0 0 0 0 0 0 0 0 0 0 0 0 0 0 0 0 0 0 0 0 0 0 0 0 0 0 0 0 0 0 0 0 0 0 0 0 0 0 0 0 0 0 0 0 0 0 0 0 0 0 0 0 0 0 0 0 0 0 0 0 0 0 0 0 0 0 0 0 0 0 0 0 0 0 0 0 0 0 0 0 0 0 0 0 0 0 0 0 0 0 0 0 0 0 0 0 0 0 0 0 0 0 0 0 0 0 0 0 0 0 0 0 0 0 0 0 0 0 0 0 0 0 0 0 0 0 0 0 0 0 0 0 0 0 0 0 0 0 0 0 0 0 0 0 0 0 0 0 0 0 0 0 0 0 0 6 0 0 0 0 0 0 0 0 0 0 0 0 0 0 0 0 0 0 0 0 0 0 0 0 0 0 0 0 0 0 0 0 0 0 0 0 0 0 0 0 0 0 0 0 0 0 0 0 0 0 0 0 0 0 0 0 0 0 0 0 0 0 0 0 0 0 0 0 0 0 0 0 0 0 0 0 0 0 0 0 0 0 0 0 0 0 0 0 0 0 16 0 0 0 0 0 0 0 0 0 0 0 0 0 0 0 0 0 0 0 0 0 0 0 0 0 0 0 0 0 0 0 4 0 0 0 0 0 0 0 0 0 0 0 0 0 0 0 0 0 0 0 0 0 0 0 0 0 0 0 0 0 0 0 0 0 0 0 0 0 0 0 0 0 0 0 0 0 0 0 0 0 0 0 0 0 0 0 0 0 0 12 0 18 0 0 0 0 0 0 0 0 0 0 0 0 0 0 0 0 0 0 0 0 0 0 0 0 0 0 0 0 0 0 0 0 0 0 0 0 0 6 0 0 0 0 0 0 2 0 0 0 0 0 0 0 0 0 0 0 0 0 0 0 0 0 0 0 0 0 0 0 0 0 0 0 0 0 0 0 0 0 0 0 0 0 0 0 0 0 0 0 0 0 0 0 0 0 0 0 0 0 0 0 0 0 0 0 0 0 0 0 0 0 0 0 0 0 0 0 0 0 0 0 0 4 0 0 0 0 0 0 0 0 0 0 0 0 0 0 0 Printing Sanity3
offset_index value2402
offset list size2402
reward size2402
potential size2402
-----------------------------------------------------------------------------------------------------------------------------------------------------------------------------------------------------

DRAM Statistics
 CHANNEL 0
 RQ ROW_BUFFER_HIT:     781820  ROW_BUFFER_MISS:     739310
 DBUS_CONGESTED:       3227
 WQ ROW_BUFFER_HIT:      57744  ROW_BUFFER_MISS:      86630  FULL:          0

 AVG_CONGESTED_CYCLE: 5
 All warmup complete: 2
Channel 0 Bank busy for read cycles: 0
Channel 0 Bank busy for write cycles: 0
Channel 0
Rank 0
0banks busy for read cycles: 418246149
0banks busy for write cycles: 53220
1banks busy for read cycles: 63075383
1banks busy for write cycles: 10619528
2banks busy for read cycles: 22141819
2banks busy for write cycles: 2974482
3banks busy for read cycles: 4582320
3banks busy for write cycles: 1238492
4banks busy for read cycles: 5795911
4banks busy for write cycles: 753010
5banks busy for read cycles: 431820
5banks busy for write cycles: 523960
6banks busy for read cycles: 222610
6banks busy for write cycles: 585220
7banks busy for read cycles: 130933
7banks busy for write cycles: 1261890
8banks busy for read cycles: 171738
8banks busy for write cycles: 2795741

CPU 0 Branch Prediction Accuracy: 99.6511% MPKI: 0.819515 Average ROB Occupancy at Mispredict: 27.3263
Branch types
NOT_BRANCH: 153025089 76.5125%
BRANCH_DIRECT_JUMP: 1846527 0.923264%
BRANCH_INDIRECT: 24302760 12.1514%
BRANCH_CONDITIONAL: 15487955 7.74398%
BRANCH_DIRECT_CALL: 2098550 1.04927%
BRANCH_INDIRECT_CALL: 567786 0.283893%
BRANCH_RETURN: 2670999 1.3355%
BRANCH_OTHER: 0 0%

DRAM PAGES: 1048576
Allocated PAGES: 9438
