
*** ChampSim Multicore Out-of-Order Simulator ***

Warmup Instructions: 50000000
Simulation Instructions: 200000000
Number of CPUs: 1
LLC sets: 2048
LLC ways: 16
Off-chip DRAM Size: 4096 MB Channels: 1 Width: 64-bit Data Rate: 6400 MT/s
CPU 0 runs traces/spec2k17/srv_7.champsimtrace.xz
.xz
BTB has LRU replacement policy
ITLB has LRU replacement policy
DTLB has LRU replacement policy
STLB has LRU replacement policy
L1I has LRU replacement policy
L1D has LRU replacement policy
Initialize SRRIP state for L2C
Initialize DRRIP state for LLC
Offsets elements: 
Potential of Offsets elements: 
rewards of Offsets elements: 
Printing Sanity1
offset list size2384
Offsets elements: 
Potential of Offsets elements: 
rewards of Offsets elements: 0 0 0 0 0 0 0 0 0 0 0 0 1798 0 0 0 0 0 0 0 0 1010 0 0 0 0 0 0 0 0 0 15 21 0 0 118 0 0 0 0 0 0 0 0 0 0 0 0 0 0 0 0 0 0 0 0 0 0 0 0 0 0 0 0 0 0 0 0 0 0 0 0 0 0 0 0 0 0 0 0 0 0 0 0 0 0 0 0 0 0 0 0 0 0 0 0 0 0 0 0 0 0 0 0 0 0 0 0 868 0 0 0 18 44 3 0 0 0 0 0 0 0 10 0 0 0 0 0 531 0 4 12 0 0 0 0 0 0 0 0 0 0 0 0 0 0 0 387 0 0 0 0 0 0 0 0 0 0 0 0 0 0 0 0 0 0 0 0 0 0 0 0 0 0 0 0 0 0 0 0 0 0 0 0 0 0 0 0 0 0 0 0 0 0 0 0 0 0 0 0 0 288 0 664 0 0 0 0 0 0 45 0 0 0 1 0 0 0 0 0 0 0 0 0 0 0 0 0 0 0 0 0 0 0 0 0 163 0 0 0 0 0 0 0 0 0 0 0 0 148 0 0 71 0 0 0 0 0 0 0 0 0 0 0 271 0 0 0 0 0 0 0 0 0 0 84 0 0 0 0 0 0 0 0 0 0 0 0 2 0 0 18 561 0 0 0 0 0 215 0 0 13 0 16 0 0 0 0 0 0 0 0 0 0 0 0 0 0 0 0 0 0 0 0 718 0 0 0 0 0 0 0 0 0 0 0 140 0 0 56 4 0 135 3 0 18 0 480 169 0 0 0 0 0 0 0 0 0 0 0 0 0 0 0 0 18 4 14 10 0 278 0 0 0 0 0 0 0 0 0 0 0 0 0 0 0 0 0 50 0 0 0 0 0 0 0 0 0 0 0 0 0 0 8 23 0 4 0 0 0 0 0 0 0 0 0 0 0 0 0 0 0 0 0 0 0 0 0 0 0 0 0 0 0 0 0 0 0 0 0 0 0 0 0 0 0 54 0 0 0 0 0 0 4 0 0 0 0 0 0 0 0 0 36 0 0 38 0 0 0 0 0 0 0 0 0 0 0 0 0 0 0 0 0 0 0 0 0 0 0 24 3 0 0 0 0 0 0 0 0 0 0 0 0 0 0 0 0 0 0 0 0 0 0 0 0 0 0 0 0 0 0 0 0 48 0 16 0 0 0 0 0 0 0 0 0 0 0 0 0 0 0 0 0 7 0 0 0 0 0 0 0 0 0 0 0 0 0 0 0 0 1 4 0 0 0 0 0 0 0 0 0 0 0 0 0 0 0 0 0 124 0 0 0 0 0 0 0 0 0 0 0 0 0 0 0 0 0 0 0 0 0 0 0 0 0 0 0 0 0 0 0 0 0 0 0 128 0 0 0 0 0 0 0 0 0 0 0 0 0 0 0 0 0 0 0 0 0 0 0 0 0 0 0 0 0 0 4 0 0 0 0 0 0 0 0 0 0 0 0 0 0 0 0 0 0 0 0 0 0 0 0 2 0 14 0 293 0 0 0 59 0 0 0 0 0 0 0 51 0 213 0 0 0 0 0 0 0 0 0 0 0 0 0 0 0 0 13 0 120 26 0 6 0 0 0 0 0 0 0 0 0 0 0 0 0 0 0 0 0 0 0 0 0 0 0 0 0 0 0 0 0 0 0 0 0 0 0 0 0 0 0 12 8 0 1 35 5 0 0 0 0 0 0 0 0 0 0 0 0 0 0 0 0 0 0 0 0 0 0 0 0 0 0 0 0 0 48 17 0 0 0 0 35 0 0 0 0 0 0 0 0 0 0 0 0 0 0 0 0 0 0 0 0 0 0 0 0 0 0 0 0 0 0 0 0 0 0 0 0 0 0 4 0 0 0 0 0 0 0 0 0 0 0 0 0 0 0 0 0 0 0 0 0 0 0 0 0 0 0 0 0 0 0 0 0 0 0 0 0 0 0 0 16 44 0 0 0 0 0 0 0 4 0 0 0 0 0 0 0 0 0 0 0 0 0 0 0 0 0 0 0 0 0 0 0 0 0 47 0 0 0 0 0 0 0 1 0 23 0 0 0 0 0 0 0 0 0 0 0 0 0 0 0 0 0 0 0 0 0 0 0 0 0 0 0 0 0 0 0 0 0 0 0 0 0 0 0 0 0 0 0 0 1 12 0 0 0 0 0 0 0 0 0 0 0 0 0 0 0 0 0 0 0 0 0 0 0 0 0 0 0 0 0 0 0 0 0 0 0 0 0 0 0 0 0 0 0 0 140 0 1 0 0 0 0 0 0 0 0 0 0 0 0 0 0 0 0 0 0 18 0 0 0 0 0 0 0 0 0 0 0 0 196 0 0 0 14 0 0 110 0 0 0 0 0 0 0 0 0 0 0 0 0 0 0 0 157 0 0 0 0 0 0 0 0 0 0 0 0 0 0 0 0 16 0 0 0 0 0 0 0 0 0 0 0 0 0 0 0 0 0 12 93 0 0 0 0 0 0 0 35 48 18 42 48 32 2 0 0 0 12 16 42 108 60 9 8 4 4 0 0 0 0 0 0 0 0 0 0 0 0 0 0 0 0 0 0 0 0 0 0 0 0 0 0 0 0 0 0 0 0 0 0 0 0 0 0 0 0 0 0 0 0 0 0 0 0 0 0 0 0 45 0 0 5 25 36 0 0 0 0 0 0 0 0 0 0 0 0 0 160 80 0 0 0 36 8 0 0 0 0 0 0 0 0 0 0 0 0 0 0 0 0 0 0 0 0 0 0 0 0 0 0 0 0 0 0 0 0 0 0 0 0 0 0 0 0 0 0 0 0 0 0 0 0 0 0 0 0 0 0 0 0 0 0 0 0 0 0 0 0 6 0 0 0 2 0 0 0 0 0 0 0 0 0 0 0 0 0 0 0 0 0 0 0 0 0 63 0 0 0 22 0 0 0 0 0 0 0 0 0 0 0 0 0 0 0 0 0 0 0 0 0 0 0 0 0 0 0 0 78 42 0 0 25 6 0 0 0 0 0 0 0 0 0 0 0 0 0 0 0 0 0 0 0 0 0 0 0 0 0 0 0 0 0 0 0 0 3 0 0 0 0 0 0 0 0 0 0 0 0 0 0 0 0 0 0 0 0 0 0 0 0 0 0 0 0 0 0 0 0 0 0 0 0 0 0 0 0 0 0 0 18 59 0 0 0 0 0 0 0 0 0 0 0 0 0 0 0 0 0 0 0 0 0 0 0 0 0 0 0 80 0 0 0 1 0 0 0 0 0 0 0 0 54 0 0 0 0 0 0 0 0 0 0 0 0 0 0 0 0 0 0 0 0 0 0 0 0 0 0 0 0 0 0 0 0 0 0 0 0 0 0 0 1 0 0 0 0 0 0 0 0 0 72 0 0 0 0 0 0 0 0 0 0 0 0 0 0 0 0 0 0 0 0 0 0 0 0 0 0 0 0 0 0 0 0 0 0 0 0 0 0 0 0 0 0 0 0 0 0 0 0 0 0 0 0 0 0 0 0 0 0 0 0 0 0 0 0 0 0 0 0 0 0 0 0 0 0 0 0 0 0 0 0 6 0 0 0 0 0 0 0 0 0 0 0 0 0 0 0 0 0 0 0 0 0 0 0 0 0 0 0 0 0 0 0 0 0 0 0 0 0 0 0 0 0 0 0 0 0 0 0 0 0 0 0 0 0 0 0 0 0 0 0 0 0 0 0 0 0 0 0 0 0 0 0 0 0 0 0 0 0 0 0 0 0 0 0 0 0 0 0 0 0 0 0 0 0 0 0 0 0 0 0 17 0 0 0 0 0 0 0 0 0 0 0 0 0 0 0 0 0 0 0 0 0 0 0 0 0 0 0 0 0 0 0 0 0 0 0 0 0 0 0 0 0 0 0 0 0 0 0 0 0 0 0 0 0 0 0 0 0 0 0 0 0 0 0 0 0 0 0 0 0 0 0 0 0 0 0 0 0 0 0 0 0 0 0 0 0 0 0 0 0 0 0 0 0 0 0 0 0 0 0 0 0 0 0 0 0 0 0 0 0 0 0 0 0 0 0 0 0 0 0 0 0 0 0 0 0 0 0 0 0 0 0 0 0 0 0 0 0 0 0 0 0 0 0 0 0 0 0 0 0 0 0 0 0 0 0 0 0 0 0 0 0 0 0 0 0 0 0 0 154 0 0 0 0 0 0 0 0 0 0 0 0 0 0 0 0 0 0 0 0 0 0 0 0 0 0 0 0 0 0 0 0 0 0 0 0 0 0 0 0 0 0 38 0 0 0 0 0 0 0 0 0 14 0 0 0 0 0 0 0 0 0 0 0 0 0 0 0 0 0 0 0 0 0 0 0 0 0 0 0 0 0 0 0 0 0 0 0 0 0 0 0 0 0 0 0 0 0 0 0 0 0 0 0 0 0 0 0 0 0 0 0 0 0 0 0 0 0 0 0 0 0 0 0 0 0 0 0 0 0 0 0 0 0 0 0 0 0 0 0 0 0 0 0 0 0 0 0 0 0 0 0 0 0 0 0 0 0 0 0 0 0 0 0 0 0 0 0 0 0 0 0 0 0 0 0 0 0 0 0 0 0 0 0 0 0 0 0 0 0 0 6 0 35 0 0 0 0 0 0 0 0 0 0 0 0 0 0 0 0 0 0 0 0 0 0 54 0 0 30 0 108 0 0 0 0 0 0 0 0 0 0 0 0 0 0 0 0 0 0 0 0 0 0 0 0 0 0 0 0 0 0 0 0 0 0 0 0 0 0 0 0 0 12 0 0 0 0 0 0 0 0 0 0 0 0 0 0 0 0 0 0 0 0 0 0 0 0 0 0 0 0 0 0 0 0 0 0 0 0 0 0 0 0 0 0 0 0 0 0 0 0 0 0 0 0 0 0 0 16 0 0 0 0 0 0 0 0 70 0 0 9 0 0 0 6 0 0 0 0 0 0 0 6 0 0 0 0 0 0 0 24 0 0 0 0 198 0 0 0 0 0 0 0 90 30 10 0 0 0 0 0 0 0 3 0 0 0 0 0 0 0 0 0 0 0 0 0 0 0 0 0 0 0 0 0 0 0 0 0 0 0 0 0 0 0 0 0 0 0 0 0 0 0 0 0 0 0 0 0 0 0 0 0 0 0 0 0 0 0 0 0 0 3 0 0 0 2 0 0 0 0 0 0 0 0 3 24 0 0 0 0 18 0 36 72 210 90 0 80 8 0 0 0 7 3 213 20 105 84 105 48 78 151 60 42 166 160 169 66 0 0 0 0 0 0 0 8 0 0 0 0 0 0 0 0 0 0 0 0 0 0 0 0 0 0 0 0 0 0 0 0 143 0 0 0 144 0 0 0 0 20 0 84 25 102 4 0 
Printing Sanity2
Heartbeat CPU 0 instructions: 10000001 cycles: 2782299 heartbeat IPC: 3.59415 cumulative IPC: 3.59415 (Simulation time: 0 hr 0 min 20 sec) 
Heartbeat CPU 0 instructions: 20000001 cycles: 5585092 heartbeat IPC: 3.56787 cumulative IPC: 3.58096 (Simulation time: 0 hr 0 min 41 sec) 
Heartbeat CPU 0 instructions: 30000001 cycles: 8385267 heartbeat IPC: 3.57121 cumulative IPC: 3.5777 (Simulation time: 0 hr 1 min 2 sec) 
*** Reached end of trace for Core: 0 Repeating trace: traces/spec2k17/srv_7.champsimtrace.xz
Heartbeat CPU 0 instructions: 40000000 cycles: 11195464 heartbeat IPC: 3.55847 cumulative IPC: 3.57288 (Simulation time: 0 hr 1 min 24 sec) 
Heartbeat CPU 0 instructions: 50000000 cycles: 14007093 heartbeat IPC: 3.55666 cumulative IPC: 3.56962 (Simulation time: 0 hr 1 min 45 sec) 

Warmup complete CPU 0 instructions: 50000004 cycles: 14007094 (Simulation time: 0 hr 1 min 45 sec) 

Heartbeat CPU 0 instructions: 60000000 cycles: 37133881 heartbeat IPC: 0.432399 cumulative IPC: 0.432399 (Simulation time: 0 hr 2 min 18 sec) 
*** Reached end of trace for Core: 0 Repeating trace: traces/spec2k17/srv_7.champsimtrace.xz
Heartbeat CPU 0 instructions: 70000000 cycles: 60677577 heartbeat IPC: 0.424742 cumulative IPC: 0.428536 (Simulation time: 0 hr 2 min 52 sec) 
Heartbeat CPU 0 instructions: 80000003 cycles: 84011136 heartbeat IPC: 0.428567 cumulative IPC: 0.428547 (Simulation time: 0 hr 3 min 26 sec) 
Heartbeat CPU 0 instructions: 90000001 cycles: 107148826 heartbeat IPC: 0.432195 cumulative IPC: 0.429453 (Simulation time: 0 hr 4 min 0 sec) 
*** Reached end of trace for Core: 0 Repeating trace: traces/spec2k17/srv_7.champsimtrace.xz
Heartbeat CPU 0 instructions: 100000001 cycles: 130382919 heartbeat IPC: 0.430402 cumulative IPC: 0.429642 (Simulation time: 0 hr 4 min 34 sec) 
Heartbeat CPU 0 instructions: 110000000 cycles: 153772324 heartbeat IPC: 0.427544 cumulative IPC: 0.429291 (Simulation time: 0 hr 5 min 7 sec) 
Heartbeat CPU 0 instructions: 120000003 cycles: 177007174 heartbeat IPC: 0.430388 cumulative IPC: 0.429448 (Simulation time: 0 hr 5 min 41 sec) 
*** Reached end of trace for Core: 0 Repeating trace: traces/spec2k17/srv_7.champsimtrace.xz
Heartbeat CPU 0 instructions: 130000002 cycles: 200091316 heartbeat IPC: 0.433198 cumulative IPC: 0.429913 (Simulation time: 0 hr 6 min 13 sec) 
Heartbeat CPU 0 instructions: 140000001 cycles: 223516545 heartbeat IPC: 0.42689 cumulative IPC: 0.429575 (Simulation time: 0 hr 6 min 45 sec) 
Heartbeat CPU 0 instructions: 150000000 cycles: 246752902 heartbeat IPC: 0.43036 cumulative IPC: 0.429653 (Simulation time: 0 hr 7 min 18 sec) 
*** Reached end of trace for Core: 0 Repeating trace: traces/spec2k17/srv_7.champsimtrace.xz
Heartbeat CPU 0 instructions: 160000003 cycles: 269905255 heartbeat IPC: 0.431922 cumulative IPC: 0.429859 (Simulation time: 0 hr 7 min 50 sec) 
Heartbeat CPU 0 instructions: 170000002 cycles: 293089748 heartbeat IPC: 0.431323 cumulative IPC: 0.42998 (Simulation time: 0 hr 8 min 21 sec) 
Heartbeat CPU 0 instructions: 180000002 cycles: 316389803 heartbeat IPC: 0.429184 cumulative IPC: 0.429919 (Simulation time: 0 hr 8 min 53 sec) 
*** Reached end of trace for Core: 0 Repeating trace: traces/spec2k17/srv_7.champsimtrace.xz
Heartbeat CPU 0 instructions: 190000003 cycles: 339466175 heartbeat IPC: 0.433344 cumulative IPC: 0.430162 (Simulation time: 0 hr 9 min 23 sec) 
Heartbeat CPU 0 instructions: 200000001 cycles: 362908990 heartbeat IPC: 0.42657 cumulative IPC: 0.42992 (Simulation time: 0 hr 9 min 53 sec) 
Heartbeat CPU 0 instructions: 210000003 cycles: 386132043 heartbeat IPC: 0.430607 cumulative IPC: 0.429963 (Simulation time: 0 hr 10 min 23 sec) 
*** Reached end of trace for Core: 0 Repeating trace: traces/spec2k17/srv_7.champsimtrace.xz
Heartbeat CPU 0 instructions: 220000000 cycles: 409325749 heartbeat IPC: 0.431151 cumulative IPC: 0.430033 (Simulation time: 0 hr 10 min 51 sec) 
Heartbeat CPU 0 instructions: 230000000 cycles: 432582960 heartbeat IPC: 0.429974 cumulative IPC: 0.43003 (Simulation time: 0 hr 11 min 17 sec) 
Heartbeat CPU 0 instructions: 240000001 cycles: 455538156 heartbeat IPC: 0.435631 cumulative IPC: 0.430321 (Simulation time: 0 hr 11 min 44 sec) 
*** Reached end of trace for Core: 0 Repeating trace: traces/spec2k17/srv_7.champsimtrace.xz
Heartbeat CPU 0 instructions: 250000001 cycles: 478942205 heartbeat IPC: 0.427276 cumulative IPC: 0.430168 (Simulation time: 0 hr 12 min 11 sec) 
Finished CPU 0 instructions: 200000003 cycles: 464935117 cumulative IPC: 0.430168 (Simulation time: 0 hr 12 min 11 sec) 

ChampSim completed all CPUs

Region of Interest Statistics

CPU 0 cumulative IPC: 0.430168 instructions: 200000003 cycles: 464935117
ITLB TOTAL     ACCESS:   31420179  HIT:   30602132  MISS:     818047  HIT %:    97.3964  MISS %:    2.60357   MPKI: 4.09023
ITLB LOAD TRANSLATION ACCESS:   31420179  HIT:   30602132  MISS:     818047  HIT %:    97.3964  MISS %:    2.60357   MPKI: 4.09023
ITLB PREFETCH  REQUESTED:          0  ISSUED:          0  USEFUL:          0  USELESS:          0
ITLB USEFUL LOAD PREFETCHES:          0 PREFETCH ISSUED TO LOWER LEVEL:          0  ACCURACY: -nan
ITLB TIMELY PREFETCHES:          0 LATE PREFETCHES: 0 DROPPED PREFETCHES: 0
ITLB PREFETCHES SAME FILL-ORIGIN LEVEL: 0 DIFFERENT FILL-ORIGIN LEVEL: 0
ITLB AVERAGE MISS LATENCY: 15.6125 cycles
ITLB RQ	ACCESS:   38272717	FORWARD:          0	MERGED:    6657516	TO_CACHE:   31615201

DTLB TOTAL     ACCESS:   37157644  HIT:   34791871  MISS:    2365773  HIT %:    93.6331  MISS %:    6.36685   MPKI: 11.8289
DTLB LOAD TRANSLATION ACCESS:   37157644  HIT:   34791871  MISS:    2365773  HIT %:    93.6331  MISS %:    6.36685   MPKI: 11.8289
DTLB PREFETCH  REQUESTED:          0  ISSUED:          0  USEFUL:          0  USELESS:          0
DTLB USEFUL LOAD PREFETCHES:          0 PREFETCH ISSUED TO LOWER LEVEL:          0  ACCURACY: -nan
DTLB TIMELY PREFETCHES:          0 LATE PREFETCHES: 0 DROPPED PREFETCHES: 0
DTLB PREFETCHES SAME FILL-ORIGIN LEVEL: 0 DIFFERENT FILL-ORIGIN LEVEL: 0
DTLB AVERAGE MISS LATENCY: 15.3239 cycles
DTLB RQ	ACCESS:   47703243	FORWARD:          0	MERGED:   10400839	TO_CACHE:   37302404

STLB TOTAL     ACCESS:   24427697  HIT:   24002362  MISS:     425335  HIT %:    98.2588  MISS %:     1.7412   MPKI: 2.12667
STLB LOAD TRANSLATION ACCESS:    3183820  HIT:    2760567  MISS:     423253  HIT %:    86.7061  MISS %:    13.2939   MPKI: 2.11626
STLB TRANSLATION FROM L1D PREFETCHER ACCESS:   21243877  HIT:   21241795  MISS:       2082  HIT %:    99.9902  MISS %: 0.00980047   MPKI: 0.01041
STLB PREFETCH  REQUESTED:          0  ISSUED:          0  USEFUL:       1884  USELESS:        199
STLB USEFUL LOAD PREFETCHES:       1884 PREFETCH ISSUED TO LOWER LEVEL:          0  ACCURACY: inf
STLB TIMELY PREFETCHES:       1884 LATE PREFETCHES: 3 DROPPED PREFETCHES: 1489034
STLB PREFETCHES SAME FILL-ORIGIN LEVEL: 0 DIFFERENT FILL-ORIGIN LEVEL: 0
STLB AVERAGE MISS LATENCY: 47.8457 cycles
STLB RQ	ACCESS:   29689099	FORWARD:          0	MERGED:    3772212	TO_CACHE:   25916887

STLB Hit, L1D data hit: 0
STLB Hit, L2C data hit: 0
STLB Hit, LLC data hit: 0
STLB Hit, LLC data miss: 0
STLB STLB hints to L2: 0
L1D TOTAL     ACCESS:   71990939  HIT:   67892533  MISS:    4098406  HIT %:    94.3071  MISS %:    5.69295   MPKI: 20.492
L1D LOAD      ACCESS:   27515852  HIT:   25346299  MISS:    2169553  HIT %:    92.1153  MISS %:    7.88474   MPKI: 10.8478
L1D RFO       ACCESS:   19698466  HIT:   19380715  MISS:     317751  HIT %:    98.3869  MISS %:    1.61307   MPKI: 1.58875
L1D PREFETCH  ACCESS:   24776621  HIT:   23165519  MISS:    1611102  HIT %:    93.4975  MISS %:    6.50251   MPKI: 8.05551
AGUS PREFETCH L1 MISS: 0
L1D PREFETCH  REQUESTED:   54160766  ISSUED:   54160542  USEFUL:     270483  USELESS:    1340613
L1D USEFUL LOAD PREFETCHES:     270483 PREFETCH ISSUED TO LOWER LEVEL:    1623549  ACCURACY: 16.66
L1D TIMELY PREFETCHES:     270483 LATE PREFETCHES: 11944 DROPPED PREFETCHES: 1489034
L1D PREFETCHES SAME FILL-ORIGIN LEVEL: 1623549 DIFFERENT FILL-ORIGIN LEVEL: 0
L1D AVERAGE MISS LATENCY: 747566 cycles
L1D RQ	ACCESS:   42082306	FORWARD:          0	MERGED:   14174107	TO_CACHE:   27655487
L1D WQ	ACCESS:   20434181	FORWARD:     297766	MERGED:     386425	TO_CACHE:   20047756
L1D PQ	ACCESS:   27655263	FORWARD:          0	MERGED:    1104930	TO_CACHE:   26505279

L1D UNIQUE REGIONS ACCESSED: 0
L1D REGIONS CONFLICTS: 0
L1D Cross Page Prefetch Requests: 2346238
L1D Same Page Prefetch Requests: 30958592
L1D ROI Sum of L1D PQ occupancy: 442478642
L1D PREFETCHES PUSHED FROM L2C: 0
L1I TOTAL     ACCESS:   36590396  HIT:   31497244  MISS:    5093152  HIT %:    86.0806  MISS %:    13.9194   MPKI: 25.4658
L1I LOAD      ACCESS:   36590396  HIT:   31497244  MISS:    5093152  HIT %:    86.0806  MISS %:    13.9194   MPKI: 25.4658
L1I PREFETCH  REQUESTED:          0  ISSUED:          0  USEFUL:          0  USELESS:          0
L1I USEFUL LOAD PREFETCHES:          0 PREFETCH ISSUED TO LOWER LEVEL:          0  ACCURACY: -nan
L1I TIMELY PREFETCHES:          0 LATE PREFETCHES: 0 DROPPED PREFETCHES: 0
L1I PREFETCHES SAME FILL-ORIGIN LEVEL: 0 DIFFERENT FILL-ORIGIN LEVEL: 0
L1I AVERAGE MISS LATENCY: 28.4898 cycles
L1I RQ	ACCESS:   57200931	FORWARD:          0	MERGED:   18928214	TO_CACHE:   38272717

BTB TOTAL     ACCESS:   22366379  HIT:   17715698  MISS:    4650681  HIT %:    79.2068  MISS %:    20.7932   MPKI: 23.2534
BTB BRANCH_DIRECT_JUMP	ACCESS:    1867626  HIT:    1582862  MISS:     284764
BTB BRANCH_INDIRECT	ACCESS:    9379895  HIT:    7206638  MISS:    2173257
BTB BRANCH_CONDITIONAL	ACCESS:    4614315  HIT:    4180590  MISS:     433725
BTB BRANCH_DIRECT_CALL	ACCESS:    2585717  HIT:    2040743  MISS:     544974
BTB BRANCH_INDIRECT_CALL	ACCESS:     665918  HIT:     607579  MISS:      58339
BTB BRANCH_RETURN	ACCESS:    3252908  HIT:    2097286  MISS:    1155622
BTB BRANCH_OTHER ACCESS:          0  HIT:          0  MISS:          0

L2C TOTAL     ACCESS:   13470845  HIT:    8945890  MISS:    4524955  HIT %:    66.4093  MISS %:    33.5907   MPKI: 22.6248
L2C LOAD      ACCESS:    7250554  HIT:    3908532  MISS:    3342022  HIT %:    53.9067  MISS %:    46.0933   MPKI: 16.7101
L2C DATA LOAD MPKI: 5.08605
L2C INSTRUCTION LOAD MPKI: 11.6241
L2C RFO       ACCESS:     317243  HIT:     164784  MISS:     152459  HIT %:    51.9425  MISS %:    48.0575   MPKI: 0.762295
L2C PREFETCH  ACCESS:    1623315  HIT:     877133  MISS:     746182  HIT %:    54.0334  MISS %:    45.9666   MPKI: 3.73091
AGUS PREFETCH L1 MISS: 0
L2C DATA PREFETCH MPKI: 3.73091
L2C INSTRUCTION PREFETCH MPKI: 0
L2C WRITEBACK ACCESS:    1099096  HIT:    1054686  MISS:      44410  HIT %:    95.9594  MISS %:    4.04059   MPKI: 0.22205
L2C LOAD TRANSLATION ACCESS:     555119  HIT:     319589  MISS:     235530  HIT %:    57.5713  MISS %:    42.4287   MPKI: 1.17765
L2C TRANSLATION FROM L1D PREFETCHER ACCESS:    2625518  HIT:    2621166  MISS:       4352  HIT %:    99.8342  MISS %:   0.165758   MPKI: 0.02176
L2C PREFETCH  REQUESTED:          0  ISSUED:          0  USEFUL:      32617  USELESS:     717873
L2C USEFUL LOAD PREFETCHES:      32617 PREFETCH ISSUED TO LOWER LEVEL:     746182  ACCURACY: 4.37119
L2C TIMELY PREFETCHES:      32617 LATE PREFETCHES: 0 DROPPED PREFETCHES: 0
L2C PREFETCHES SAME FILL-ORIGIN LEVEL: 0 DIFFERENT FILL-ORIGIN LEVEL: 0
L2C AVERAGE MISS LATENCY: 42.4974 cycles
L2C RQ	ACCESS:   10748645	FORWARD:          0	MERGED:          0	TO_CACHE:   10748433
L2C WQ	ACCESS:    1099096	FORWARD:        446	MERGED:          0	TO_CACHE:    1099096
L2C PQ	ACCESS:    1623549	FORWARD:          0	MERGED:          0	TO_CACHE:    1623315

L2C Instructions Evicting Data 998445
L2C Translations Evicting Data 103153
L2C Data Evicting Data 838191
L2C Instructions Evicting Instructions 1202243
L2C Translations Evicting Instructions 123118
L2C Data Evicting Instructions 977368
L2C Instructions Evicting Translations 124123
L2C Translations Evicting Translations 13611
L2C Data Evicting Translations 100293
L2C Dense regions hint from L2: 0
PSCL5 TOTAL     ACCESS:    1914369  HIT:    1914369  MISS:          0  HIT %:        100  MISS %:          0   MPKI: 0
PSCL5 LOAD TRANSLATION ACCESS:     423250  HIT:     423250  MISS:          0  HIT %:        100  MISS %:          0   MPKI: 0
PSCL5 TRANSLATION FROM L1D PREFETCHER ACCESS:    1491119  HIT:    1491119  MISS:          0  HIT %:        100  MISS %:          0   MPKI: 0
PSCL5 PREFETCH  REQUESTED:          0  ISSUED:          0  USEFUL:          0  USELESS:          0
PSCL5 USEFUL LOAD PREFETCHES:          0 PREFETCH ISSUED TO LOWER LEVEL:          0  ACCURACY: -nan
PSCL5 TIMELY PREFETCHES:          0 LATE PREFETCHES: 0 DROPPED PREFETCHES: 0
PSCL5 PREFETCHES SAME FILL-ORIGIN LEVEL: 0 DIFFERENT FILL-ORIGIN LEVEL: 0

PSCL4 TOTAL     ACCESS:    1835172  HIT:    1833557  MISS:       1615  HIT %:     99.912  MISS %:  0.0880027   MPKI: 0.008075
PSCL4 LOAD TRANSLATION ACCESS:     408996  HIT:     407381  MISS:       1615  HIT %:    99.6051  MISS %:   0.394869   MPKI: 0.008075
PSCL4 TRANSLATION FROM L1D PREFETCHER ACCESS:    1426176  HIT:    1426176  MISS:          0  HIT %:        100  MISS %:          0   MPKI: 0
PSCL4 PREFETCH  REQUESTED:          0  ISSUED:          0  USEFUL:          0  USELESS:          0
PSCL4 USEFUL LOAD PREFETCHES:          0 PREFETCH ISSUED TO LOWER LEVEL:          0  ACCURACY: -nan
PSCL4 TIMELY PREFETCHES:          0 LATE PREFETCHES: 0 DROPPED PREFETCHES: 0
PSCL4 PREFETCHES SAME FILL-ORIGIN LEVEL: 0 DIFFERENT FILL-ORIGIN LEVEL: 0

PSCL3 TOTAL     ACCESS:    1903648  HIT:    1901998  MISS:       1650  HIT %:    99.9133  MISS %:  0.0866757   MPKI: 0.00825
PSCL3 LOAD TRANSLATION ACCESS:     419421  HIT:     417771  MISS:       1650  HIT %:    99.6066  MISS %:   0.393399   MPKI: 0.00825
PSCL3 TRANSLATION FROM L1D PREFETCHER ACCESS:    1484227  HIT:    1484227  MISS:          0  HIT %:        100  MISS %:          0   MPKI: 0
PSCL3 PREFETCH  REQUESTED:          0  ISSUED:          0  USEFUL:          0  USELESS:          0
PSCL3 USEFUL LOAD PREFETCHES:          0 PREFETCH ISSUED TO LOWER LEVEL:          0  ACCURACY: -nan
PSCL3 TIMELY PREFETCHES:          0 LATE PREFETCHES: 0 DROPPED PREFETCHES: 0
PSCL3 PREFETCHES SAME FILL-ORIGIN LEVEL: 0 DIFFERENT FILL-ORIGIN LEVEL: 0

PSCL2 TOTAL     ACCESS:     781887  HIT:     652877  MISS:     129010  HIT %:    83.5002  MISS %:    16.4998   MPKI: 0.64505
PSCL2 LOAD TRANSLATION ACCESS:     423656  HIT:     294646  MISS:     129010  HIT %:    69.5484  MISS %:    30.4516   MPKI: 0.64505
PSCL2 TRANSLATION FROM L1D PREFETCHER ACCESS:     358231  HIT:     358231  MISS:          0  HIT %:        100  MISS %:          0   MPKI: 0
PSCL2 PREFETCH  REQUESTED:          0  ISSUED:          0  USEFUL:          0  USELESS:          0
PSCL2 USEFUL LOAD PREFETCHES:          0 PREFETCH ISSUED TO LOWER LEVEL:          0  ACCURACY: -nan
PSCL2 TIMELY PREFETCHES:          0 LATE PREFETCHES: 0 DROPPED PREFETCHES: 0
PSCL2 PREFETCHES SAME FILL-ORIGIN LEVEL: 0 DIFFERENT FILL-ORIGIN LEVEL: 0

LLC TOTAL     ACCESS:    4988344  HIT:    4608093  MISS:     380251  HIT %:    92.3772  MISS %:    7.62279   MPKI: 1.90125
LLC LOAD      ACCESS:    3342022  HIT:    3088968  MISS:     253054  HIT %:    92.4281  MISS %:    7.57188   MPKI: 1.26527
LLC RFO       ACCESS:     152459  HIT:     105580  MISS:      46879  HIT %:    69.2514  MISS %:    30.7486   MPKI: 0.234395
LLC PREFETCH  ACCESS:     746182  HIT:     684738  MISS:      61444  HIT %:    91.7655  MISS %:    8.23445   MPKI: 0.30722
AGUS PREFETCH L1 MISS: 0
LLC WRITEBACK ACCESS:     507799  HIT:     505141  MISS:       2658  HIT %:    99.4766  MISS %:   0.523435   MPKI: 0.01329
LLC LOAD TRANSLATION ACCESS:     235530  HIT:     219371  MISS:      16159  HIT %:    93.1393  MISS %:     6.8607   MPKI: 0.080795
LLC TRANSLATION FROM L1D PREFETCHER ACCESS:       4352  HIT:       4295  MISS:         57  HIT %:    98.6903  MISS %:    1.30974   MPKI: 0.000285
LLC PREFETCH  REQUESTED:          0  ISSUED:          0  USEFUL:        787  USELESS:      61438
LLC USEFUL LOAD PREFETCHES:        787 PREFETCH ISSUED TO LOWER LEVEL:      61444  ACCURACY: 1.28084
LLC TIMELY PREFETCHES:        787 LATE PREFETCHES: 0 DROPPED PREFETCHES: 0
LLC PREFETCHES SAME FILL-ORIGIN LEVEL: 0 DIFFERENT FILL-ORIGIN LEVEL: 0
LLC AVERAGE MISS LATENCY: 152.218 cycles
LLC RQ	ACCESS:    3734362	FORWARD:          0	MERGED:          0	TO_CACHE:    3734362
LLC WQ	ACCESS:     507799	FORWARD:          0	MERGED:          0	TO_CACHE:     507799
LLC PQ	ACCESS:     746182	FORWARD:          0	MERGED:          0	TO_CACHE:     746182

LLC Dense regions hint to LLC: 0

RAW hits: 2801641
Loads Generated: 44883947
Loads sent to L1D: 42082306
Stores Generated: 20434162
Stores sent to L1D: 20434181
Major fault: 0 Minor fault: 6471
Allocated PAGES: 6471
ucb ended
-----------------------------------------------------------------------------------------------------------------------------------------------------------------------------------------------------
Offsets elements: 5792712 30 1204 -8332533 8490693 -8490623 8330991 -5792474 -2258236 8055706 -4914 -8331142 1 8330938 -8330935 2538589 5792953 -5792959 5797771 -917 -8335423 -1 421829 7909214 82 4914 -4510 -607 5419 -8336355 2538584 10 -10 -4398021409698 4398021409698 -2538580 8336352 -8336352 -4397629419034 -3625798 -385826251 389424875 4397637937332 -4397637910182 130380540 -130410470 -439581 -3156264 134006318 -134018102 134018107 4397502768709 -4397636786816 11786 4397641535955 -8491125 -4397633044830 134006313 -134018098 11784 -134006317 134006321 4397507529634 -8491126 3730201 -4397633149233 -3625797 4397635583412 -4397635583410 4397633044828 6884884 -4397639929714 4397633044830 -4397633056615 4397633056614 6884862 -4397636303918 -29930 4397637940112 -4397637940111 4397637940111 29929 4397629448988 8491124 -154992 145512 22650 -22337 17361 -8499317 -27174 27174 4397629419035 8491123 -4397638379633 4397629888511 -4397629419036 4397629419036 -4397629888572 4397637122367 -4397637122367 469536 -442300 442325 -513638 513638 -513637 71218 5 442413 -442405 -71231 513635 -513635 71235 -71234 513634 -442395 -71253 71337 4397629888496 7233795 -4397636652831 -442299 4397637174450 -4397637230724 218137 -389144372 -5 4398027207153 145511 312 22337 -4977 2538581 -4397635583409 3625794 27150 29930 4397636705705 1234407 -4397637940112 -3168048 3168048 134018099 -134006312 134006316 4 -134018107 11787 4397636775029 4760925 134018098 -134030438 24126 -134030446 134030446 -4397636799155 4397641535954 -4397499038517 -10525 4397641570605 -4397641535954 -134040967 4397635618062 -4397501577091 -4397636775027 4397639929711 -6884885 6884885 -4397639953839 4397635607543 4346248 -4397636274281 4397629389446 -1205181 -4747353 5792464 4996 404 -5792353 5797772 -5149 -5792616 5796848 -4397637724884 4397637724892 -5796856 -5796841 5792588 -5792587 -2355535 8154649 -6416 33414 -33384 158160 2538521 5797548 -275756 421267 -4976 -8499324 3 8331059 -5797768 5521792 270965 -8331280 8364643 -8364711 8364714 -5826122 275676 -4729 -8331328 8364710 -8364710 -8364643 -8364642 8364642 288223780698701011 -2200618737332 2200618737332 -288223780707065721 288223780707065971 -2200618734945 2200618734942 -2200618734965 2200618734957 -239 250 -52012 51762 -51783 52020 8 -2200618650395 2200618650151 -51761 -2200614977677 2200615029676 -288223780698701250 288223780698701012 -51795 -2200614977643 2200615029438 -2200615029438 2200615029680 -6 11125208 -11125209 6 11125202 -11125444 236 -2200618650467 2200629775941 -2200629775941 2200618650473 -242 11125445 -11125204 -52014 -7 11177224 -11125202 11125203 -11125203 513792 -513792 515843 -1140483 11749860 -17 17 -11125220 -11126738 1536 -11126739 11126756 -11749859 623104 11126755 435 -2200629776112 23232 -13994 13994 2200618627219 11125661 -11125660 2 -11125207 11125206 -243 -51796 51796 26 51769 -2200618650231 15 2200629775926 12 -11125486 11125059 415 -11177506 11177472 -11177472 11177508 -2200629775932 1642 2200618648813 -2200618648812 11125475 -11125475 -2200618650385 2200618650386 -52020 -11 -2200618683019 2200618683021 62760 -3 -62757 62757 11114745 -11177504 62759 -62756 62755 -62758 62758 -62732 11177441 31 -11125676 -51794 -2200618661195 2200629775721 -11114523 11114746 -11235926 81252 16 11154621 -2 -11154621 11154654 -11154655 -11154620 11154623 -11154624 11154619 29177 10730 11177473 -11154619 11154617 -31 -11125441 -2200618635801 2200618635802 -52032 -2200629860491 2200614831582 15028909 -11154622 11154624 33 -11154654 -29176 39906 -10731 -51610 51612 -51613 -416 416 62342 -62342 -624 624 568716 -506375 11114744 -11114747 62340 -62344 51611 11125478 -11125476 -52030 11125677 -11177452 -2200618598375 2200629775860 428 51783 11176617 -11176630 51616 -236 -7936 -43444 37 51343 -51334 51570 -51600 -2200618568497 2200618568481 43444 -43409 43643 11133646 43860 11133612 -11133376 11133411 -11133410 -238 239 -43683 -2200618575694 2200618619382 -2200615038407 2200615038407 -2200615038408 2200615038408 11133139 -11133139 11133138 -11133142 -249 -43407 43399 -250 255 -288223780707025204 -69 8331860 -8331861 8331859 -8331791 -71 8331862 -33694 406 206 33083 -8331860 8298558 4895 -4893 33300 288223780698693160 -2200618729396 2637 2200618726759 -43431 43431 244 -2200618642459 2200618642459 11 -2200615036125 2200615036125 -288223780698726980 -4758 1234 -1204 -8027958 8187322 -8457855 270533 -23216 8050906 -8055902 -203 607 -8298778 8303590 -8303589 270608 -270605 8302669 -8032070 8027689 5117 -8298775 8303573 -8032988 -4398019174492 4398018903886 8303584 -5859700 -4397631895684 -389452051 385814466 3610409 4397637910182 130410469 -130850050 134018103 4397636786816 4397641547741 -8458358 -4397629451799 -3637583 4397633359981 -4397633359979 4397639941474 -6852093 -4397633089383 4397639941476 -4397629921335 4397629921334 -4397629451824 4397636340035 -4397636340035 4397629481756 8448875 9481 17673 -17360 -8449188 8471525 -4397637923325 -27176 27176 4397629451801 8458355 4397629921279 7201027 -7201027 -4397629451803 -469537 469538 71220 442418 71224 71231 442405 -513636 442400 71239 442395 -513648 4397629992601 -4397637122291 4397637174437 -4397636704975 -389451984 388926235 498573 -389424813 -4397638208287 -161863 4397638370463 -312 22649 -8466549 270597 3637582 4397636675775 -4397636705705 -3180388 3180388 134030438 134018102 12340 4397641547740 -4397507529638 -134006316 -34651 134040971 -134006320 134006320 -8 4397502768717 -4397636786815 -134040971 22865 134018106 -4760925 -3426834 -4397633359978 4397639941473 -6852094 6852094 -4397639964341 4397639964296 -6581444 -4397629722429 29606 -59536 4397629752353 3607625 4397636333848 -4397636333848 -4397638379692 4397636773428 -4397636333847 -3607628 4397633089383 4397641547739 -394037 -6588532 8027680 -8027569 8032988 -8027832 8032072 -8032064 7 8027804 -4397637720637 4397629692834 8034329 12883 20418 -32096 270537 8032764 -275780 421291 -8466556 8298291 -8032984 7756984 270989 -8298512 8331791 -8061254 275700 -8298560 8331858 -8331858 -8331790 8331790 288223780698693159 2200618729396 -288223780707025017 288223780707025267 -2200618727009 -23 2200618726782 -43410 43410 43675 2200618642215 43647 -2200615038164 -288221580083654996 -43443 -2200614994721 2200615038406 -11133138 -11133380 -2200618642295 2200618642537 11133381 -11176802 11176808 11133140 -10611411 2051 -523779 523779 -616704 624640 -7941 6406 -6399 -4 11133160 -11133161 11133161 -16 6641 11126738 -11176824 51594 -624640 616463 -2200618642280 -15 2200629775953 -12 -415 381 34 -11177090 11177092 2200629774288 -2200629775861 2200618598782 -2200618683435 2200618683437 62344 -62341 62341 -62340 -62320 43654 -43675 62968 11114747 -11114745 -57016 119355 62343 -62316 11177056 -11177025 43413 -43442 2200618661198 11114524 222 81253 -33 11154620 22435 11154651 -11154651 11154622 -11154618 36 -11133413 -2200618627864 2200618584186 -15028909 -2200614831582 2200629860491 -11177056 11177057 -62965 44300 -44301 62966 -62966 569344 -569344 -569655 62965 62964 -62968 11177712 -43678 11133613 -11177036 -2200618598791 -612 11177241 -11177254 44304 2304 -46372 -587 44031 -44022 44022 -2200618568527 2200618567873 46372 -46337 46335 -45748 45748 11131106 -34 -11131072 11131105 -11131105 -2200618621680 2200618621442 46616 -2200615041497 2200615041497 11130835 -11130836 -46335 46577 -288223780707371641 69 -72 3220755 -3220755 3220754 -3220686 -70 3220757 5421475 612 -206 -5421880 5421867 -5421869 288223780704150633 -2200618731700 2200618729063 -46359 46603 -2200618644763 2200618644763 -2200615020925 2200615020925 -288223780698729284 -5661400 5662634 -8642555 8801919 -8210146 2389352 -2389352 8050514 -8055510 -8642842 8647653 -8647650 2981197 5665536 -5665542 -2981177 2390349 6251990 -4398027202254 4398021541020 5666158 -5117 -8642232 8642840 4812 -4398027207435 4398027362207 -8802420 -4397629107728 -3649932 -130407690 -4397641560080 12341 3607628 130410473 -134018101 3168047 130850058 -134018106 -12340 130850050 4397636799155 134030442 -4041497 8802422 -4397637910148 4397635738849 -4397635738846 4397639953788 -7196132 -4397632757658 4397632757658 -4397629577270 469510 4397505923353 6212 1600077 3619968 -130410474 130410478 -130410477 4397629137691 8802420 -4397507529634 -134018105 4397637785119 -4397637755190 4397633149257 4751444 -4397641538258 4397641538259 -4397637930632 4397637930944 -4397641538572 4397641555933 -4397641568273 4397641568272 4977 -8810613 -27184 4397629134912 -4397629577213 469485 4397629107729 8802419 -8802418 7545091 -4397636652821 -469546 4397629577276 -4397629577276 469546 -442418 513636 71222 4397629577294 -4397637193615 -14 71248 469559 4397636704967 -4397637174521 84 442286 -498573 56274 161863 2981189 3649929 -3649897 4397640325672 -4397507529642 130410477 4397636786814 -4397636786814 -3156262 -24125 24125 -134030441 134030445 -4397636809680 134040963 -134030437 134030441 -134030445 4397636799154 -5821231 -4397635738845 4397632757654 -4397632733532 4397635714729 4616044 -401108 -7196131 7196179 -4397636274347 4397637880588 -5821222 5661162 270 4847 3895 917 -909 -4261 -5661283 5667801 -4397637720759 4397637720789 5423073 -8148971 8152578 9042 8631 -8815526 8792876 -5811747 5812060 -420057 -8373200 8642355 -5661037 5661644 -199 5011 -8647587 3220686 -239555 5392003 -5152446 5426599 -5421871 -3220752 3220753 3220685 2200618731700 -288223780707371385 288223780707371635 -2200618729313 -2200618729086 2200618682748 46338 3603265 2200615041254 -288223780704150633 238 -46575 46337 242 -46612 11177448 -2200626172331 2200626172330 -11130834 -11131076 -2200618644599 2200618644841 11131100 -265 -11131077 241 -11177425 11177433 10609360 -11130835 -619008 619008 5636 -1536 11126739 -11130840 -5630 11130833 -5873 46345 -2200618644584 -427 -2200629775515 2200629775930 -2200629774288 2200629774254 -11177716 -2200618596574 2200618642946 -2200618644518 2200618598158 11177702 -11177703 -2200618682813 2200618745781 -62964 20 -22 569345 62969 -119357 119354 -62962 62963 27 -16598 11131308 -2200618540018 2200618621271 11154450 -11154434 -11114713 -2200629761278 2200618630169 -3897834 3851228 11177679 2200629860492 -11177681 11177683 -11114714 -16360 16361 -62967 569346 -569345 -506378 506378 -506379 -10608369 -506380 506376 10608368 -11131108 -46606 11131309 -11177660 -2200618598167 -11177714 569356 46359 522985 569331 10607910 -11130882 523009 -569381 569390 -523018 518912 -2200619133141 2200618567903 569314 -4060 4095 -4097 248 -565531 565284 10612430 -10612147 10612183 -10612181 4097 -4105 -288228178337406503 -107141 4397636826379 -7467014 -4397629349441 4397629890782 -4397629854946 4397633038466 5332144 -9301111 288223780708398134 -2200619250622 2200619250622 4084 -4084 -574296 3684 -21397 563866 24306 -24306 -343 24399 -24400 24648 -12037 -487711 -2200618724181 2200606424098 12799825 -2200619163387 2200619168655 -2200619228990 2200606423897 12805091 25 -25 -2200619159244 2200619159267 -2200619159440 2200619159439 -5273 -12031 -12610 12610 12035 -24643 24645 -24644 -24305 24307 -288223780708398388 -74 244174 -4398018295931 4398018295931 -244172 8056866 -7812687 8911381 -9155559 -4397628589036 -516229 4397629105265 -4397629115187 192501 -192501 -11761 118902 4397628971305 36741 -4397629105267 -9923 9924 500272 4397636661859 -4397637162130 -21683 4397629090207 -4397628552323 -474373 727164 -572227 572228 11282572 -12051567 -21681 497138 4397628593069 9347072 -4397638415598 475457 11575012 -11447931 -127082 4397637940141 -4397637879742 4397628569412 7711230 -4397636816497 4397629105266 -4397628629813 4397628629811 -4397629115193 4397629115193 -4397629105269 4397629105269 9310329 -9310327 9155335 -4397638420449 4397638442786 -4397638433721 4397629115199 -4397629119290 489476 60399 11514613 -11447933 11447933 118922895 -118922931 -4065 5161 -11449030 -637896 4397629384805 -4397629384805 551590 -526145 4397629359354 -4397498432817 -130400398 77909 130322489 -519863047 389462655 280284 -247832 -581708 4397629138284 -4397629119300 608175 202381 -192765 -389550102 389535835 -622509 660160 -37014 -13980 -590183 605061 37606 331 -2153 4397628478451 244182 -4397628773297 -59918 54117 130346276 -130322489 -810555 4397636830611 -7711314 -4397629140622 4397638450958 -4397638425507 639624 -32 166805 -166871 -662671 4397629138283 -4397629101612 12025111 -11401950 4397628722638 -4397628722638 -23138 -14359 4397637826288 -9310336 7711340 -4397636225577 -624045 9310334 -4398027362016 389605782 4397628445900 9310333 -4397637825474 -13976 4397628529117 -4397628529116 34057 11440264 -11474322 -34056 26388 -26390 14860 -14860 4397628773290 -4397629345789 4397638411948 -1606323 -4397639971269 3738143 -572499 4397636805625 7301 -4397639978573 3764536 11448814 -11448814 11448815 -11448816 4397628746907 -4397628833214 -526151 -388936359 388936359 -85360 4397636719238 -4397628746903 4397629288244 -4397617839429 -389548734 4398022020506 -4398022020506 4398018295634 8911388 -8911378 -244175 -4397617053911 -400997633 389548818 4397628502724 -4397628524960 -3742301 4397632267261 -4397628556501 -389494945 4398018295627 3724869 5182434 -4398027202838 4398018051351 9155572 -5186525 -3969047 9310157 -9310083 -4397617053772 4397626209270 -9155498 -76 288223780708398210 -2200619250617 2200619250617 570212 -21395 588172 -499748 499499 -499750 -12300074 12300075 -2200618661394 2200618661393 -12190086 -109985 12300071 499745 -1101038 1101038 -499747 -2200618724179 2200618724180 -12300077 12799830 -1101977 1101727 -499500 2200619223927 -499744 499746 -12799828 12799826 -2200619223722 60334 2200606363562 -2200619159245 2200619159248 -5513 5511 -5511 5269 -2200619154682 2200619154704 18 -21 -5290 32400 -32401 -467989 467987 5287 -5295 5290 -2200619169075 2200619196187 -27132 27131 -32404 -502154 534558 -32644 32643 -27134 -2200619159246 2200619153974 32406 -500364 467958 32405 -32405 5292 -5269 -9 -5291 -241 2200619159266 -20 -2200619149172 2200619149413 -12190087 -109994 109994 499747 -1101036 1100790 249 3838 -3838 4088 -503588 499750 -4398018051444 4398018295621 -8911388 -4397628502725 -4397632267260 15213351 4397617053910 4397628746906 -4398018295724 389462510 4397628589033 -4397628922683 107141 4397629008043 -4397628502726 4397628502726 -4397617053912 4397617053911 -9310331 -4397628529119 4397628529118 -4397617054795 4397617054794 4397617054795 -4397617058859 4065 4397617303039 -4397628746909 11443869 -12060427 12060426 118925625 4397498046329 86903 -4397617058857 118925629 -118925649 4397616971940 -4397616961844 -6031 -11447935 -616558 12070523 4397617292943 -4397629363466 12070522 -27722 118944713 4397498375947 130457274 4397506210533 -4397506210533 -56876 56877 -2209 -130361092 -93968 130457270 -130379367 16065 186316 4397627578471 -4397616346211 -11451689 11451689 -11439276 4397628515752 -4397628478112 4397636211799 -4397636211800 -50997 50997 4397628478111 -4397628478111 4397628478112 -4397617048754 -11480354 11452634 -11452634 4397630580569 6041952 -4397637159365 540984 -397709 377770 101157 -101158 4397630681727 -1807279 -4397628769149 -3742283 3763829 -562530 536842 130398084 -130398084 4397636233126 -4397636233127 -4397630580569 4397636622522 -6041953 -4397630580570 -4397631130616 4397631130616 4397628773291 -4397629326549 -3184883 3738142 -4397639971270 4397640360666 -4397636622523 4397628529106 -4397617048752 -11394023 4397636536191 -4397625148200 -26388 7662 11441159 209 -1093 4397617054780 9310344 -4397626365125 4397617054781 244185 -4397617299350 4397617299350 -4397632511431 4397639971267 -7704021 7704021 7704020 -7704020 -4397628478109 -56932 4397636246352 -7711309 9310342 -4397626359096 4397617048755 -4397628529108 11452633 4397626386817 -9310340 9310340 -4397626386817 -11452633 4397636607889 -4397636521558 -86332 4397628529110 -4397628478113 4397628478113 11429356 -11486289 11486288 4397626359097 -4397626359098 -6029 11453963 4397617292945 12070520 -12020525 130935564 -130935564 130935568 -519917575 519917580 4397498377897 -4397628739241 130361345 -130455319 130400398 -130400392 93968 -16065 4397628217457 -4397628436886 12413 37642 4397637788451 -4397638379623 591172 -591170 4397629069277 -4397629069279 -3197970 4397632267250 -4397629102381 12053626 118914974 -118921003 -400996443 389548508 130368938 -130368938 -4397617054780 4397626365125 -4397626365126 -400996444 400996445 -15212468 4397632267248 -4397628495055 11439891 -15212083 3789141 -3789144 -4397628535040 4397637845384 -1599033 -4397639978560 134133469 4397498133780 -9310344 4538505 -4397633016613 11429353 -11429352 -56934 11486286 -11486286 11486285 4397626359099 -4397626369187 4060 11443874 4397617303034 12060432 -12060431 49996 130935442 -519917450 388982008 130935446 4397498378023 -93974 130455197 -54799 54800 -130455192 130377290 -130174909 -219429 4397628436886 37641 4397628478104 9310347 -4397637788450 -591172 -3197971 3197972 4397637141412 -4397637174515 4397637174516 -4397506205916 -134133469 -130361275 -3772193 3772193 -587310 -3184886 -578412 578412 -3738143 3738144 -4397634318713 4397629345789 -4397632511430 3165641 -4397636805625 -3165644 4397632511433 -4397632511429 4397639971265 4397632267242 9310350 -9066153 -4397628833215 4397636661154 -4397506260762 -604060 806441 4397628552925 280291 130120107 220965 4397636440189 -4397636583251 -604061 806442 4397628308729 -4397628368049 -3899193 -4397628336052 -31998 4397632267239 -4397632267239 3931192 -3931191 4397634318710 -4397630360021 -3958690 4397634318711 -4397630387519 4397630387519 -2051471 8026640 1283711 -9310351 3214389 4397629052851 -9066159 -244190 -4397628336050 -3931188 3931188 27498 4397628552742 -4397632511427 3958684 -3958688 3958688 4397636012577 -7704026 -4397632267244 4397632267244 4397632511434 -4397632511426 4397640339377 -8072141 -4397629065941 -388985188 385783887 3636986 -475950 -3262193 -4398020102600 389128463 492900 -389536003 389537874 18189 -18188 130382477 -130364288 -18189 18190 -389556064 389556062 -389556062 389556064 4397628495064 -4397632267242 4397641577593 -4397641577593 4397632511426 -4397632511425 4397632267230 4397639971270 -2051475 -4397632511424 3738134 4397628529096 7704030 -7704030 -4397632267240 4397632511427 -4397632267229 3738136 -3738136 4397632267233 -4397628529097 -4397632267233 3738137 -4398018051083 4398018295286 8906080 -8906576 8905969 -9150166 9155583 -5100 -126 -4397641417587 4397641421813 -2358 -1663 -7099086 -4397500271843 4397498464563 1807280 -2051433 -44 1241052 -1241052 9150286 -8905969 -4398018295202 4398027206590 -9155582 244194 4397632267229 -7704031 -4397632267232 4397639971263 9310352 -4398027361479 4398018051128 -4397628495066 4397628495066 -4398018051128 389556063 4397628495065 4397630580570 130395148 -130395148 -1807280 -4397632511423 4397639971259 -7459836 -4397632511422 4397639971258 -7704027 -4397636786385 4397629082359 7704026 7704027 134121078 4397498146160 -4397624762864 4397625130980 -4397625126920 4397617054774 -4397617054776 4397626365126 -384 4397617055160 -4397628478101 -56940 4397628535041 7711316 4397502672286 -4538509 -9310347 -4397628478103 11419263 -11476203 11476202 4397626369188 -4397626369190 4397617303037 3653181 -526556 4397629384802 -4398018295160 389461945 -130775390 374998 77903 -4397629252826 419611 -130120108 -280284 -389461951 388935794 604060 4397628308727 -4398027361313 4398018295160 -4397629208207 374992 -419617 4397629252826 -4397628755306 -77909 389742235 130120108 -130926549 4397628308728 -4397628308727 4397637619077 -9310349 244190 -4397632511421 4397632511421 4397639971257 -4397636844631 4397629384795 -4397632511420 3197960 4397636773296 -4397636773296 4397638379619 -4397641580375 4397639974046 6251 -4397636779542 -71336 -71337 513623 4397629069284 56940 -389573180 389573178 -50055 -389522759 389572813 4397628722299 -244195 -4397628528158 4397637838506 -4397628515746 4397637826093 -9310346 -1598996 -4397636189454 -56933 56934 365 389572814 50055 4397628722298 -4397628772353 -7711348 -9310343 56933 -50054 50054 -37641 4397636227097 -7711345 9310341 -9310338 9310338 9310335 -9310333 9310331 -4397626369193 4397617058862 4397625127673 -4397625131737 11443870 -12060428 118925640 4397498046251 9397301 -4397626369192 -118925625 4397498046294 -4397616971943 10096 11453965 118915458 -118915457 4397626359095 -9397476 -4397616989341 -118944713 118944717 4397497401501 -4397616346226 27721 4397626359098 12070521 118915460 4397498046162 -4397616961622 4397638379623 4397498042255 -4397616957304 -10088 4397626369187 12060431 118925549 -118925549 4397616971711 9397476 -4397638379622 -130935442 -118925018 4397616967393 -4397616967393 4397626369190 -4397626369189 4397617303036 -4397628858247 -388910358 497520 4397628755306 -4397628552925 -280290 4397628308730 280290 -4397617053891 4397617298079 -4397498375033 4397498375033 4397639971255 -4397632511419 3197959 -4397639971258 -4397636844632 4397629140610 9310345 -9310345 -9310342 9310339 9310336 -4397617058855 4064 11443868 11447935 -4064 -4397626369188 4061 4397617303035 12060429 -12010432 130935539 -130935539 12010431 10088 -4397626359099 -6028 4397617292946 12070518 -12020524 130935575 -130935575 130935579 -118915062 118915062 -118915061 -4397626359097 -6030 4397617292944 4397629028412 -4397616957891 -12020526 130935586 -130935586 130935590 -118915065 118915070 -118915069 118915069 4397626359096 -4397507444026 -118925166 4397616963921 -4397628411856 12060427 -12060426 130986051 -4397616971954 -118925646 4063 4397616967851 -4397628415785 12064490 4397617298975 -11448815 11447931 -11447934 11447932 -11447932 4397628502722 -9310337 9310337 -9310335 -9310332 -4397617053700 4397617053700 -4397617058861 4397617058863 -4397628525120 4397637835450 -9310329 -4397628502732 4397628502731 -4397628502730 -4397629119288 4397638429617 4397628569413 -9481 -145512 145824 -9318522 9155336 -4397629119293 4397629363465 -4397628722122 4397628477947 -4397628535959 58012 -3789321 3731309 4397637846287 -9310326 -4397629119292 532288 4397628587000 244173 -244174 -4397629119291 4397636830485 -4397636189141 4397628477949 9310326 -4397629363465 4397628586997 -388931566 4398027206191 -4397637742183 4397637887694 -4397641568115 4397641568116 -4397507454700 4397507454699 -4397632267268 134131093 9 -134131109 3147977 4397629013315 -4397629013314 -4397632511442 -385783526 389421383 -3637858 4397639971273 -4397635991060 -8410 4397628539633 -4397632481585 3949938 -7986 8409 -3980198 3979772 7987 423 4397628287051 -4397628287051 -8409 4397628531223 -4397629363460 -3147957 4397641422584 -9318525 -4397632511417 4397639971253 -4397636823296 4397637207820 -4397637207819 -4397628873588 151466 -58012 4397628477945 7711295 1599035 -4398027361121 385783526 3637857 4397628629408 -4397632267266 -4398025754798 389421382 -4397628629408 4397636333415 -4397639971273 4397632267266 244177 -4397632511443 530251 -530250 530256 130400392 4397628511129 -4397632267267 4397632267267 -4397628831177 4397628587001 -4397628586848 -532442 -4398018050857 4398018050856 -4397629105087 4397629105088 4397629119292 9066153 -4397637897330 -532287 532293 -528201 4397629115202 4089 4397629115201 -4397629119287 641342 -3731292 -9924 9925 475455 -475455 4397629115192 -4397628604996 -510196 4397629359368 7812687 -4397637162132 516231 -333650 -4397629890781 35835 -35836 4397633074302 -570212 574296 24400 -12035 -2200606363562 -5268 -24 -2200619159269 2200619159264 23 -2200619159439 2200619154166 -12032 -73 -4398018051757 8911378 -244178 -4397628922686 333650 -419010 4397629115187 510196 -500272 4397638274625 -4397638270536 4397638416047 60335 4397637879806 4976 4397632267253 4397629105087 4397638429618 -4397629363464 532287 3161981 4397628849172 -4397636645901 -516231 182581 541341 -4397629890782 24646 244179 -8056865 -182581 -9920 9921 97220 -107144 4397629115191 -4397628604994 -24817 4397628629813 4397638415598 9155334 -4397638420136 4397638420137 -4397638416360 4397638433721 -9318521 4397637879742 -9155337 9300848 -17361 -9323498 -4397638429618 -532288 4397629119290 -4397629115201 4397638270536 288223780704429167 -288223780699097023 288221580089147512 24649 -4398018051756 -8056868 9155562 -4397637744595 4397628589035 -4397628922685 4397628922686 4397629008047 -4397628629811 -485379 -4397628604999 4397637760333 -4397638420137 4397638437810 17360 9301161 -9301160 9323497 -168161 4397629363466 532442 -389464008 9310327 -569311 -3161981 -4397628849172 15958 4397637162132 -4397637172052 -35835 
Potential of Offsets elements: 28.2966 28.2966 28.2966 28.2966 28.2966 28.2966 28.2966 28.2966 28.2966 28.2966 28.2966 28.2966 800.376 28.2966 28.2966 28.2966 28.2966 28.2966 28.2966 28.2966 28.2966 1010.12 28.2966 28.2966 28.2966 28.2966 28.2966 28.2966 28.2966 28.2966 28.2966 43.2966 49.2966 28.2966 28.2966 146.297 28.2966 28.2966 28.2966 28.2966 28.2966 28.2966 28.2966 28.2966 28.2966 28.2966 28.2966 28.2966 28.2966 28.2966 28.2966 28.2966 28.2966 28.2966 28.2966 28.2966 28.2966 28.2966 28.2966 28.2966 28.2966 28.2966 28.2966 28.2966 28.2966 28.2966 28.2966 28.2966 28.2966 28.2966 28.2966 28.2966 28.2966 28.2966 28.2966 28.2966 28.2966 28.2966 28.2966 28.2966 28.2966 28.2966 28.2966 28.2966 28.2966 28.2966 28.2966 28.2966 28.2966 28.2966 28.2966 28.2966 28.2966 28.2966 28.2966 28.2966 28.2966 28.2966 28.2966 28.2966 28.2966 28.2966 28.2966 28.2966 28.2966 28.2966 28.2966 28.2966 896.297 28.2966 28.2966 28.2966 46.2966 72.2966 31.2966 28.2966 28.2966 28.2966 28.2966 28.2966 28.2966 28.2966 38.2966 28.2966 28.2966 28.2966 28.2966 28.2966 559.297 28.2966 32.2966 40.2966 28.2966 28.2966 28.2966 28.2966 28.2966 28.2966 28.2966 28.2966 28.2966 28.2966 28.2966 28.2966 28.2966 28.2966 28.2966 415.297 28.2966 28.2966 28.2966 28.2966 28.2966 28.2966 28.2966 28.2966 28.2966 28.2966 28.2966 28.2966 28.2966 28.2966 28.2966 28.2966 28.2966 28.2966 28.2966 28.2966 28.2966 28.2966 28.2966 28.2966 28.2966 28.2966 28.2966 28.2966 28.2966 28.2966 28.2966 28.2966 28.2966 28.2966 28.2966 28.2966 28.2966 28.2966 28.2966 28.2966 28.2966 28.2966 28.2966 28.2966 28.2966 28.2966 28.2966 28.2966 28.2966 28.2966 28.2966 28.2966 28.2966 316.297 28.2966 692.297 28.2966 28.2966 28.2966 28.2966 28.2966 28.2966 73.2966 28.2966 28.2966 28.2966 29.2966 28.2966 28.2966 28.2966 28.2966 28.2966 28.2966 28.2966 28.2966 28.2966 28.2966 28.2966 28.2966 28.2966 28.2966 28.2966 28.2966 28.2966 28.2966 28.2966 28.2966 28.2966 191.297 28.2966 28.2966 28.2966 28.2966 28.2966 28.2966 28.2966 28.2966 28.2966 28.2966 28.2966 28.2966 176.297 28.2966 28.2966 99.2966 28.2966 28.2966 28.2966 28.2966 28.2966 28.2966 28.2966 28.2966 28.2966 28.2966 28.2966 299.297 28.2966 28.2966 28.2966 28.2966 28.2966 28.2966 28.2966 28.2966 28.2966 28.2966 112.297 28.2966 28.2966 28.2966 28.2966 28.2966 28.2966 28.2966 28.2966 28.2966 28.2966 28.2966 28.2966 30.2966 28.2966 28.2966 46.2966 589.297 28.2966 28.2966 28.2966 28.2966 28.2966 243.297 28.2966 28.2966 41.2966 28.2966 44.2966 28.2966 28.2966 28.2966 28.2966 28.2966 28.2966 28.2966 28.2966 28.2966 28.2966 28.2966 28.2966 28.2966 28.2966 28.2966 28.2966 28.2966 28.2966 28.2966 28.2966 746.297 28.2966 28.2966 28.2966 28.2966 28.2966 28.2966 28.2966 28.2966 28.2966 28.2966 28.2966 168.297 28.2966 28.2966 84.2966 32.2966 28.2966 163.297 31.2966 28.2966 46.2966 28.2966 508.297 197.297 28.2966 28.2966 28.2966 28.2966 28.2966 28.2966 28.2966 28.2966 28.2966 28.2966 28.2966 28.2966 28.2966 28.2966 28.2966 28.2966 46.2966 32.2966 42.2966 38.2966 28.2966 306.297 28.2966 28.2966 28.2966 28.2966 28.2966 28.2966 28.2966 28.2966 28.2966 28.2966 28.2966 28.2966 28.2966 28.2966 28.2966 28.2966 28.2966 78.2966 28.2966 28.2966 28.2966 28.2966 28.2966 28.2966 28.2966 28.2966 28.2966 28.2966 28.2966 28.2966 28.2966 28.2966 36.2966 51.2966 28.2966 32.2966 28.2966 28.2966 28.2966 28.2966 28.2966 28.2966 28.2966 28.2966 28.2966 28.2966 28.2966 28.2966 28.2966 28.2966 28.2966 28.2966 28.2966 28.2966 28.2966 28.2966 28.2966 28.2966 28.2966 28.2966 28.2966 28.2966 28.2966 28.2966 28.2966 28.2966 28.2966 28.2966 28.2966 28.2966 28.2966 28.2966 28.2966 28.2966 28.2966 82.2966 28.2966 28.2966 28.2966 28.2966 28.2966 28.2966 32.2966 28.2966 28.2966 28.2966 28.2966 28.2966 28.2966 28.2966 28.2966 28.2966 64.2966 28.2966 28.2966 66.2966 28.2966 28.2966 28.2966 28.2966 28.2966 28.2966 28.2966 28.2966 28.2966 28.2966 28.2966 28.2966 28.2966 28.2966 28.2966 28.2966 28.2966 28.2966 28.2966 28.2966 28.2966 28.2966 28.2966 52.2966 31.2966 28.2966 28.2966 28.2966 28.2966 28.2966 28.2966 28.2966 28.2966 28.2966 28.2966 28.2966 28.2966 28.2966 28.2966 28.2966 28.2966 28.2966 28.2966 28.2966 28.2966 28.2966 28.2966 28.2966 28.2966 28.2966 28.2966 28.2966 28.2966 28.2966 28.2966 28.2966 28.2966 76.2966 28.2966 44.2966 28.2966 28.2966 28.2966 28.2966 28.2966 28.2966 28.2966 28.2966 28.2966 28.2966 28.2966 28.2966 28.2966 28.2966 28.2966 28.2966 28.2966 35.2966 28.2966 28.2966 28.2966 28.2966 28.2966 28.2966 28.2966 28.2966 28.2966 28.2966 28.2966 28.2966 28.2966 28.2966 28.2966 28.2966 29.2966 32.2966 28.2966 28.2966 28.2966 28.2966 28.2966 28.2966 28.2966 28.2966 28.2966 28.2966 28.2966 28.2966 28.2966 28.2966 28.2966 28.2966 28.2966 152.297 28.2966 28.2966 28.2966 28.2966 28.2966 28.2966 28.2966 28.2966 28.2966 28.2966 28.2966 28.2966 28.2966 28.2966 28.2966 28.2966 28.2966 28.2966 28.2966 28.2966 28.2966 28.2966 28.2966 28.2966 28.2966 28.2966 28.2966 28.2966 28.2966 28.2966 28.2966 28.2966 28.2966 28.2966 28.2966 156.297 28.2966 28.2966 28.2966 28.2966 28.2966 28.2966 28.2966 28.2966 28.2966 28.2966 28.2966 28.2966 28.2966 28.2966 28.2966 28.2966 28.2966 28.2966 28.2966 28.2966 28.2966 28.2966 28.2966 28.2966 28.2966 28.2966 28.2966 28.2966 28.2966 28.2966 32.2966 28.2966 28.2966 28.2966 28.2966 28.2966 28.2966 28.2966 28.2966 28.2966 28.2966 28.2966 28.2966 28.2966 28.2966 28.2966 28.2966 28.2966 28.2966 28.2966 28.2966 28.2966 28.2966 28.2966 28.2966 30.2966 28.2966 42.2966 28.2966 321.297 28.2966 28.2966 28.2966 87.2966 28.2966 28.2966 28.2966 28.2966 28.2966 28.2966 28.2966 79.2966 28.2966 241.297 28.2966 28.2966 28.2966 28.2966 28.2966 28.2966 28.2966 28.2966 28.2966 28.2966 28.2966 28.2966 28.2966 28.2966 28.2966 28.2966 41.2966 28.2966 148.297 54.2966 28.2966 34.2966 28.2966 28.2966 28.2966 28.2966 28.2966 28.2966 28.2966 28.2966 28.2966 28.2966 28.2966 28.2966 28.2966 28.2966 28.2966 28.2966 28.2966 28.2966 28.2966 28.2966 28.2966 28.2966 28.2966 28.2966 28.2966 28.2966 28.2966 28.2966 28.2966 28.2966 28.2966 28.2966 28.2966 28.2966 28.2966 28.2966 28.2966 28.2966 28.2966 40.2966 36.2966 28.2966 29.2966 63.2966 33.2966 28.2966 28.2966 28.2966 28.2966 28.2966 28.2966 28.2966 28.2966 28.2966 28.2966 28.2966 28.2966 28.2966 28.2966 28.2966 28.2966 28.2966 28.2966 28.2966 28.2966 28.2966 28.2966 28.2966 28.2966 28.2966 28.2966 28.2966 28.2966 28.2966 76.2966 45.2966 28.2966 28.2966 28.2966 28.2966 63.2966 28.2966 28.2966 28.2966 28.2966 28.2966 28.2966 28.2966 28.2966 28.2966 28.2966 28.2966 28.2966 28.2966 28.2966 28.2966 28.2966 28.2966 28.2966 28.2966 28.2966 28.2966 28.2966 28.2966 28.2966 28.2966 28.2966 28.2966 28.2966 28.2966 28.2966 28.2966 28.2966 28.2966 28.2966 28.2966 28.2966 28.2966 28.2966 32.2966 28.2966 28.2966 28.2966 28.2966 28.2966 28.2966 28.2966 28.2966 28.2966 28.2966 28.2966 28.2966 28.2966 28.2966 28.2966 28.2966 28.2966 28.2966 28.2966 28.2966 28.2966 28.2966 28.2966 28.2966 28.2966 28.2966 28.2966 28.2966 28.2966 28.2966 28.2966 28.2966 28.2966 28.2966 28.2966 28.2966 28.2966 28.2966 28.2966 28.2966 44.2966 72.2966 28.2966 28.2966 28.2966 28.2966 28.2966 28.2966 28.2966 32.2966 28.2966 28.2966 28.2966 28.2966 28.2966 28.2966 28.2966 28.2966 28.2966 28.2966 28.2966 28.2966 28.2966 28.2966 28.2966 28.2966 28.2966 28.2966 28.2966 28.2966 28.2966 28.2966 28.2966 28.2966 28.2966 75.2966 28.2966 28.2966 28.2966 28.2966 28.2966 28.2966 28.2966 29.2966 28.2966 51.2966 28.2966 28.2966 28.2966 28.2966 28.2966 28.2966 28.2966 28.2966 28.2966 28.2966 28.2966 28.2966 28.2966 28.2966 28.2966 28.2966 28.2966 28.2966 28.2966 28.2966 28.2966 28.2966 28.2966 28.2966 28.2966 28.2966 28.2966 28.2966 28.2966 28.2966 28.2966 28.2966 28.2966 28.2966 28.2966 28.2966 28.2966 28.2966 28.2966 28.2966 28.2966 28.2966 28.2966 28.2966 29.2966 40.2966 28.2966 28.2966 28.2966 28.2966 28.2966 28.2966 28.2966 28.2966 28.2966 28.2966 28.2966 28.2966 28.2966 28.2966 28.2966 28.2966 28.2966 28.2966 28.2966 28.2966 28.2966 28.2966 28.2966 28.2966 28.2966 28.2966 28.2966 28.2966 28.2966 28.2966 28.2966 28.2966 28.2966 28.2966 28.2966 28.2966 28.2966 28.2966 28.2966 28.2966 28.2966 28.2966 28.2966 28.2966 168.297 28.2966 29.2966 28.2966 28.2966 28.2966 28.2966 28.2966 28.2966 28.2966 28.2966 28.2966 28.2966 28.2966 28.2966 28.2966 28.2966 28.2966 28.2966 28.2966 28.2966 46.2966 28.2966 28.2966 28.2966 28.2966 28.2966 28.2966 28.2966 28.2966 28.2966 28.2966 28.2966 28.2966 224.297 28.2966 28.2966 28.2966 42.2966 28.2966 28.2966 138.297 28.2966 28.2966 28.2966 28.2966 28.2966 28.2966 28.2966 28.2966 28.2966 28.2966 28.2966 28.2966 28.2966 28.2966 28.2966 28.2966 185.297 28.2966 28.2966 28.2966 28.2966 28.2966 28.2966 28.2966 28.2966 28.2966 28.2966 28.2966 28.2966 28.2966 28.2966 28.2966 28.2966 44.2966 28.2966 28.2966 28.2966 28.2966 28.2966 28.2966 28.2966 28.2966 28.2966 28.2966 28.2966 28.2966 28.2966 28.2966 28.2966 28.2966 28.2966 40.2966 121.297 28.2966 28.2966 28.2966 28.2966 28.2966 28.2966 28.2966 63.2966 76.2966 46.2966 70.2966 76.2966 60.2966 30.2966 28.2966 28.2966 28.2966 40.2966 44.2966 70.2966 136.297 88.2966 37.2966 36.2966 32.2966 32.2966 28.2966 28.2966 28.2966 28.2966 28.2966 28.2966 28.2966 28.2966 28.2966 28.2966 28.2966 28.2966 28.2966 28.2966 28.2966 28.2966 28.2966 28.2966 28.2966 28.2966 28.2966 28.2966 28.2966 28.2966 28.2966 28.2966 28.2966 28.2966 28.2966 28.2966 28.2966 28.2966 28.2966 28.2966 28.2966 28.2966 28.2966 28.2966 28.2966 28.2966 28.2966 28.2966 28.2966 28.2966 28.2966 28.2966 28.2966 28.2966 28.2966 28.2966 28.2966 28.2966 73.2966 28.2966 28.2966 33.2966 53.2966 64.2966 28.2966 28.2966 28.2966 28.2966 28.2966 28.2966 28.2966 28.2966 28.2966 28.2966 28.2966 28.2966 28.2966 188.297 108.297 28.2966 28.2966 28.2966 64.2966 36.2966 28.2966 28.2966 28.2966 28.2966 28.2966 28.2966 28.2966 28.2966 28.2966 28.2966 28.2966 28.2966 28.2966 28.2966 28.2966 28.2966 28.2966 28.2966 28.2966 28.2966 28.2966 28.2966 28.2966 28.2966 28.2966 28.2966 28.2966 28.2966 28.2966 28.2966 28.2966 28.2966 28.2966 28.2966 28.2966 28.2966 28.2966 28.2966 28.2966 28.2966 28.2966 28.2966 28.2966 28.2966 28.2966 28.2966 28.2966 28.2966 28.2966 28.2966 28.2966 28.2966 28.2966 28.2966 28.2966 28.2966 28.2966 28.2966 28.2966 28.2966 28.2966 28.2966 28.2966 28.2966 34.2966 28.2966 28.2966 28.2966 30.2966 28.2966 28.2966 28.2966 28.2966 28.2966 28.2966 28.2966 28.2966 28.2966 28.2966 28.2966 28.2966 28.2966 28.2966 28.2966 28.2966 28.2966 28.2966 28.2966 28.2966 28.2966 91.2966 28.2966 28.2966 28.2966 50.2966 28.2966 28.2966 28.2966 28.2966 28.2966 28.2966 28.2966 28.2966 28.2966 28.2966 28.2966 28.2966 28.2966 28.2966 28.2966 28.2966 28.2966 28.2966 28.2966 28.2966 28.2966 28.2966 28.2966 28.2966 28.2966 28.2966 28.2966 28.2966 106.297 70.2966 28.2966 28.2966 53.2966 34.2966 28.2966 28.2966 28.2966 28.2966 28.2966 28.2966 28.2966 28.2966 28.2966 28.2966 28.2966 28.2966 28.2966 28.2966 28.2966 28.2966 28.2966 28.2966 28.2966 28.2966 28.2966 28.2966 28.2966 28.2966 28.2966 28.2966 28.2966 28.2966 28.2966 28.2966 28.2966 28.2966 31.2966 28.2966 28.2966 28.2966 28.2966 28.2966 28.2966 28.2966 28.2966 28.2966 28.2966 28.2966 28.2966 28.2966 28.2966 28.2966 28.2966 28.2966 28.2966 28.2966 28.2966 28.2966 28.2966 28.2966 28.2966 28.2966 28.2966 28.2966 28.2966 28.2966 28.2966 28.2966 28.2966 28.2966 28.2966 28.2966 28.2966 28.2966 28.2966 28.2966 28.2966 28.2966 28.2966 28.2966 46.2966 87.2966 28.2966 28.2966 28.2966 28.2966 28.2966 28.2966 28.2966 28.2966 28.2966 28.2966 28.2966 28.2966 28.2966 28.2966 28.2966 28.2966 28.2966 28.2966 28.2966 28.2966 28.2966 28.2966 28.2966 28.2966 28.2966 28.2966 28.2966 108.297 28.2966 28.2966 28.2966 29.2966 28.2966 28.2966 28.2966 28.2966 28.2966 28.2966 28.2966 28.2966 82.2966 28.2966 28.2966 28.2966 28.2966 28.2966 28.2966 28.2966 28.2966 28.2966 28.2966 28.2966 28.2966 28.2966 28.2966 28.2966 28.2966 28.2966 28.2966 28.2966 28.2966 28.2966 28.2966 28.2966 28.2966 28.2966 28.2966 28.2966 28.2966 28.2966 28.2966 28.2966 28.2966 28.2966 28.2966 28.2966 28.2966 28.2966 28.2966 28.2966 29.2966 28.2966 28.2966 28.2966 28.2966 28.2966 28.2966 28.2966 28.2966 28.2966 100.297 28.2966 28.2966 28.2966 28.2966 28.2966 28.2966 28.2966 28.2966 28.2966 28.2966 28.2966 28.2966 28.2966 28.2966 28.2966 28.2966 28.2966 28.2966 28.2966 28.2966 28.2966 28.2966 28.2966 28.2966 28.2966 28.2966 28.2966 28.2966 28.2966 28.2966 28.2966 28.2966 28.2966 28.2966 28.2966 28.2966 28.2966 28.2966 28.2966 28.2966 28.2966 28.2966 28.2966 28.2966 28.2966 28.2966 28.2966 28.2966 28.2966 28.2966 28.2966 28.2966 28.2966 28.2966 28.2966 28.2966 28.2966 28.2966 28.2966 28.2966 28.2966 28.2966 28.2966 28.2966 28.2966 28.2966 28.2966 28.2966 28.2966 28.2966 28.2966 28.2966 28.2966 28.2966 28.2966 28.2966 28.2966 28.2966 28.2966 28.2966 34.2966 28.2966 28.2966 28.2966 28.2966 28.2966 28.2966 28.2966 28.2966 28.2966 28.2966 28.2966 28.2966 28.2966 28.2966 28.2966 28.2966 28.2966 28.2966 28.2966 28.2966 28.2966 28.2966 28.2966 28.2966 28.2966 28.2966 28.2966 28.2966 28.2966 28.2966 28.2966 28.2966 28.2966 28.2966 28.2966 28.2966 28.2966 28.2966 28.2966 28.2966 28.2966 28.2966 28.2966 28.2966 28.2966 28.2966 28.2966 28.2966 28.2966 28.2966 28.2966 28.2966 28.2966 28.2966 28.2966 28.2966 28.2966 28.2966 28.2966 28.2966 28.2966 28.2966 28.2966 28.2966 28.2966 28.2966 28.2966 28.2966 28.2966 28.2966 28.2966 28.2966 28.2966 28.2966 28.2966 28.2966 28.2966 28.2966 28.2966 28.2966 28.2966 28.2966 28.2966 28.2966 28.2966 28.2966 28.2966 28.2966 28.2966 28.2966 28.2966 28.2966 28.2966 28.2966 28.2966 28.2966 28.2966 28.2966 28.2966 45.2966 28.2966 28.2966 28.2966 28.2966 28.2966 28.2966 28.2966 28.2966 28.2966 28.2966 28.2966 28.2966 28.2966 28.2966 28.2966 28.2966 28.2966 28.2966 28.2966 28.2966 28.2966 28.2966 28.2966 28.2966 28.2966 28.2966 28.2966 28.2966 28.2966 28.2966 28.2966 28.2966 28.2966 28.2966 28.2966 28.2966 28.2966 28.2966 28.2966 28.2966 28.2966 28.2966 28.2966 28.2966 28.2966 28.2966 28.2966 28.2966 28.2966 28.2966 28.2966 28.2966 28.2966 28.2966 28.2966 28.2966 28.2966 28.2966 28.2966 28.2966 28.2966 28.2966 28.2966 28.2966 28.2966 28.2966 28.2966 28.2966 28.2966 28.2966 28.2966 28.2966 28.2966 28.2966 28.2966 28.2966 28.2966 28.2966 28.2966 28.2966 28.2966 28.2966 28.2966 28.2966 28.2966 28.2966 28.2966 28.2966 28.2966 28.2966 28.2966 28.2966 28.2966 28.2966 28.2966 28.2966 28.2966 28.2966 28.2966 28.2966 28.2966 28.2966 28.2966 28.2966 28.2966 28.2966 28.2966 28.2966 28.2966 28.2966 28.2966 28.2966 28.2966 28.2966 28.2966 28.2966 28.2966 28.2966 28.2966 28.2966 28.2966 28.2966 28.2966 28.2966 28.2966 28.2966 28.2966 28.2966 28.2966 28.2966 28.2966 28.2966 28.2966 28.2966 28.2966 28.2966 28.2966 28.2966 28.2966 28.2966 28.2966 28.2966 28.2966 28.2966 28.2966 28.2966 28.2966 28.2966 28.2966 28.2966 28.2966 28.2966 28.2966 28.2966 28.2966 28.2966 28.2966 28.2966 28.2966 28.2966 28.2966 28.2966 28.2966 28.2966 28.2966 28.2966 28.2966 28.2966 182.297 28.2966 28.2966 28.2966 28.2966 28.2966 28.2966 28.2966 28.2966 28.2966 28.2966 28.2966 28.2966 28.2966 28.2966 28.2966 28.2966 28.2966 28.2966 28.2966 28.2966 28.2966 28.2966 28.2966 28.2966 28.2966 28.2966 28.2966 28.2966 28.2966 28.2966 28.2966 28.2966 28.2966 28.2966 28.2966 28.2966 28.2966 28.2966 28.2966 28.2966 28.2966 28.2966 66.2966 28.2966 28.2966 28.2966 28.2966 28.2966 28.2966 28.2966 28.2966 28.2966 42.2966 28.2966 28.2966 28.2966 28.2966 28.2966 28.2966 28.2966 28.2966 28.2966 28.2966 28.2966 28.2966 28.2966 28.2966 28.2966 28.2966 28.2966 28.2966 28.2966 28.2966 28.2966 28.2966 28.2966 28.2966 28.2966 28.2966 28.2966 28.2966 28.2966 28.2966 28.2966 28.2966 28.2966 28.2966 28.2966 28.2966 28.2966 28.2966 28.2966 28.2966 28.2966 28.2966 28.2966 28.2966 28.2966 28.2966 28.2966 28.2966 28.2966 28.2966 28.2966 28.2966 28.2966 28.2966 28.2966 28.2966 28.2966 28.2966 28.2966 28.2966 28.2966 28.2966 28.2966 28.2966 28.2966 28.2966 28.2966 28.2966 28.2966 28.2966 28.2966 28.2966 28.2966 28.2966 28.2966 28.2966 28.2966 28.2966 28.2966 28.2966 28.2966 28.2966 28.2966 28.2966 28.2966 28.2966 28.2966 28.2966 28.2966 28.2966 28.2966 28.2966 28.2966 28.2966 28.2966 28.2966 28.2966 28.2966 28.2966 28.2966 28.2966 28.2966 28.2966 28.2966 28.2966 28.2966 28.2966 28.2966 28.2966 28.2966 28.2966 28.2966 28.2966 28.2966 28.2966 28.2966 28.2966 28.2966 28.2966 28.2966 28.2966 28.2966 28.2966 28.2966 28.2966 28.2966 28.2966 28.2966 28.2966 28.2966 28.2966 28.2966 28.2966 28.2966 28.2966 28.2966 28.2966 28.2966 34.2966 28.2966 63.2966 28.2966 28.2966 28.2966 28.2966 28.2966 28.2966 28.2966 28.2966 28.2966 28.2966 28.2966 28.2966 28.2966 28.2966 28.2966 28.2966 28.2966 28.2966 28.2966 28.2966 28.2966 28.2966 82.2966 28.2966 28.2966 58.2966 28.2966 136.297 28.2966 28.2966 28.2966 28.2966 28.2966 28.2966 28.2966 28.2966 28.2966 28.2966 28.2966 28.2966 28.2966 28.2966 28.2966 28.2966 28.2966 28.2966 28.2966 28.2966 28.2966 28.2966 28.2966 28.2966 28.2966 28.2966 28.2966 28.2966 28.2966 28.2966 28.2966 28.2966 28.2966 28.2966 28.2966 28.2966 28.2966 28.2966 28.2966 28.2966 28.2966 40.2966 28.2966 28.2966 28.2966 28.2966 28.2966 28.2966 28.2966 28.2966 28.2966 28.2966 28.2966 28.2966 28.2966 28.2966 28.2966 28.2966 28.2966 28.2966 28.2966 28.2966 28.2966 28.2966 28.2966 28.2966 28.2966 28.2966 28.2966 28.2966 28.2966 28.2966 28.2966 28.2966 28.2966 28.2966 28.2966 28.2966 28.2966 28.2966 28.2966 28.2966 28.2966 28.2966 28.2966 28.2966 28.2966 28.2966 28.2966 28.2966 28.2966 28.2966 28.2966 28.2966 28.2966 28.2966 28.2966 44.2966 28.2966 28.2966 28.2966 28.2966 28.2966 28.2966 28.2966 28.2966 98.2966 28.2966 28.2966 37.2966 28.2966 28.2966 28.2966 34.2966 28.2966 28.2966 28.2966 28.2966 28.2966 28.2966 28.2966 34.2966 28.2966 28.2966 28.2966 28.2966 28.2966 28.2966 28.2966 52.2966 28.2966 28.2966 28.2966 28.2966 226.297 28.2966 28.2966 28.2966 28.2966 28.2966 28.2966 28.2966 118.297 58.2966 38.2966 28.2966 28.2966 28.2966 28.2966 28.2966 28.2966 28.2966 31.2966 28.2966 28.2966 28.2966 28.2966 28.2966 28.2966 28.2966 28.2966 28.2966 28.2966 28.2966 28.2966 28.2966 28.2966 28.2966 28.2966 28.2966 28.2966 28.2966 28.2966 28.2966 28.2966 28.2966 28.2966 28.2966 28.2966 28.2966 28.2966 28.2966 28.2966 28.2966 28.2966 28.2966 28.2966 28.2966 28.2966 28.2966 28.2966 28.2966 28.2966 28.2966 28.2966 28.2966 28.2966 28.2966 28.2966 28.2966 28.2966 28.2966 28.2966 28.2966 28.2966 28.2966 28.2966 28.2966 28.2966 28.2966 28.2966 31.2966 28.2966 28.2966 28.2966 30.2966 28.2966 28.2966 28.2966 28.2966 28.2966 28.2966 28.2966 28.2966 31.2966 52.2966 28.2966 28.2966 28.2966 28.2966 46.2966 28.2966 64.2966 100.297 238.297 118.297 28.2966 108.297 36.2966 28.2966 28.2966 28.2966 35.2966 31.2966 241.297 48.2966 133.297 112.297 133.297 76.2966 106.297 179.297 88.2966 70.2966 194.297 188.297 197.297 94.2966 28.2966 28.2966 28.2966 28.2966 28.2966 28.2966 28.2966 36.2966 28.2966 28.2966 28.2966 28.2966 28.2966 28.2966 28.2966 28.2966 28.2966 28.2966 28.2966 28.2966 28.2966 28.2966 28.2966 28.2966 28.2966 28.2966 28.2966 28.2966 28.2966 28.2966 28.2966 28.2966 171.297 28.2966 28.2966 28.2966 172.297 28.2966 28.2966 28.2966 28.2966 48.2966 28.2966 112.297 53.2966 130.297 32.2966 28.2966 
rewards of Offsets elements: 0 0 0 0 0 0 0 0 0 0 0 0 800 0 0 0 0 0 0 0 0 1010 0 0 0 0 0 0 0 0 0 15 21 0 0 118 0 0 0 0 0 0 0 0 0 0 0 0 0 0 0 0 0 0 0 0 0 0 0 0 0 0 0 0 0 0 0 0 0 0 0 0 0 0 0 0 0 0 0 0 0 0 0 0 0 0 0 0 0 0 0 0 0 0 0 0 0 0 0 0 0 0 0 0 0 0 0 0 868 0 0 0 18 44 3 0 0 0 0 0 0 0 10 0 0 0 0 0 531 0 4 12 0 0 0 0 0 0 0 0 0 0 0 0 0 0 0 387 0 0 0 0 0 0 0 0 0 0 0 0 0 0 0 0 0 0 0 0 0 0 0 0 0 0 0 0 0 0 0 0 0 0 0 0 0 0 0 0 0 0 0 0 0 0 0 0 0 0 0 0 0 288 0 664 0 0 0 0 0 0 45 0 0 0 1 0 0 0 0 0 0 0 0 0 0 0 0 0 0 0 0 0 0 0 0 0 163 0 0 0 0 0 0 0 0 0 0 0 0 148 0 0 71 0 0 0 0 0 0 0 0 0 0 0 271 0 0 0 0 0 0 0 0 0 0 84 0 0 0 0 0 0 0 0 0 0 0 0 2 0 0 18 561 0 0 0 0 0 215 0 0 13 0 16 0 0 0 0 0 0 0 0 0 0 0 0 0 0 0 0 0 0 0 0 718 0 0 0 0 0 0 0 0 0 0 0 140 0 0 56 4 0 135 3 0 18 0 480 169 0 0 0 0 0 0 0 0 0 0 0 0 0 0 0 0 18 4 14 10 0 278 0 0 0 0 0 0 0 0 0 0 0 0 0 0 0 0 0 50 0 0 0 0 0 0 0 0 0 0 0 0 0 0 8 23 0 4 0 0 0 0 0 0 0 0 0 0 0 0 0 0 0 0 0 0 0 0 0 0 0 0 0 0 0 0 0 0 0 0 0 0 0 0 0 0 0 54 0 0 0 0 0 0 4 0 0 0 0 0 0 0 0 0 36 0 0 38 0 0 0 0 0 0 0 0 0 0 0 0 0 0 0 0 0 0 0 0 0 0 0 24 3 0 0 0 0 0 0 0 0 0 0 0 0 0 0 0 0 0 0 0 0 0 0 0 0 0 0 0 0 0 0 0 0 48 0 16 0 0 0 0 0 0 0 0 0 0 0 0 0 0 0 0 0 7 0 0 0 0 0 0 0 0 0 0 0 0 0 0 0 0 1 4 0 0 0 0 0 0 0 0 0 0 0 0 0 0 0 0 0 124 0 0 0 0 0 0 0 0 0 0 0 0 0 0 0 0 0 0 0 0 0 0 0 0 0 0 0 0 0 0 0 0 0 0 0 128 0 0 0 0 0 0 0 0 0 0 0 0 0 0 0 0 0 0 0 0 0 0 0 0 0 0 0 0 0 0 4 0 0 0 0 0 0 0 0 0 0 0 0 0 0 0 0 0 0 0 0 0 0 0 0 2 0 14 0 293 0 0 0 59 0 0 0 0 0 0 0 51 0 213 0 0 0 0 0 0 0 0 0 0 0 0 0 0 0 0 13 0 120 26 0 6 0 0 0 0 0 0 0 0 0 0 0 0 0 0 0 0 0 0 0 0 0 0 0 0 0 0 0 0 0 0 0 0 0 0 0 0 0 0 0 12 8 0 1 35 5 0 0 0 0 0 0 0 0 0 0 0 0 0 0 0 0 0 0 0 0 0 0 0 0 0 0 0 0 0 48 17 0 0 0 0 35 0 0 0 0 0 0 0 0 0 0 0 0 0 0 0 0 0 0 0 0 0 0 0 0 0 0 0 0 0 0 0 0 0 0 0 0 0 0 4 0 0 0 0 0 0 0 0 0 0 0 0 0 0 0 0 0 0 0 0 0 0 0 0 0 0 0 0 0 0 0 0 0 0 0 0 0 0 0 0 16 44 0 0 0 0 0 0 0 4 0 0 0 0 0 0 0 0 0 0 0 0 0 0 0 0 0 0 0 0 0 0 0 0 0 47 0 0 0 0 0 0 0 1 0 23 0 0 0 0 0 0 0 0 0 0 0 0 0 0 0 0 0 0 0 0 0 0 0 0 0 0 0 0 0 0 0 0 0 0 0 0 0 0 0 0 0 0 0 0 1 12 0 0 0 0 0 0 0 0 0 0 0 0 0 0 0 0 0 0 0 0 0 0 0 0 0 0 0 0 0 0 0 0 0 0 0 0 0 0 0 0 0 0 0 0 140 0 1 0 0 0 0 0 0 0 0 0 0 0 0 0 0 0 0 0 0 18 0 0 0 0 0 0 0 0 0 0 0 0 196 0 0 0 14 0 0 110 0 0 0 0 0 0 0 0 0 0 0 0 0 0 0 0 157 0 0 0 0 0 0 0 0 0 0 0 0 0 0 0 0 16 0 0 0 0 0 0 0 0 0 0 0 0 0 0 0 0 0 12 93 0 0 0 0 0 0 0 35 48 18 42 48 32 2 0 0 0 12 16 42 108 60 9 8 4 4 0 0 0 0 0 0 0 0 0 0 0 0 0 0 0 0 0 0 0 0 0 0 0 0 0 0 0 0 0 0 0 0 0 0 0 0 0 0 0 0 0 0 0 0 0 0 0 0 0 0 0 0 45 0 0 5 25 36 0 0 0 0 0 0 0 0 0 0 0 0 0 160 80 0 0 0 36 8 0 0 0 0 0 0 0 0 0 0 0 0 0 0 0 0 0 0 0 0 0 0 0 0 0 0 0 0 0 0 0 0 0 0 0 0 0 0 0 0 0 0 0 0 0 0 0 0 0 0 0 0 0 0 0 0 0 0 0 0 0 0 0 0 6 0 0 0 2 0 0 0 0 0 0 0 0 0 0 0 0 0 0 0 0 0 0 0 0 0 63 0 0 0 22 0 0 0 0 0 0 0 0 0 0 0 0 0 0 0 0 0 0 0 0 0 0 0 0 0 0 0 0 78 42 0 0 25 6 0 0 0 0 0 0 0 0 0 0 0 0 0 0 0 0 0 0 0 0 0 0 0 0 0 0 0 0 0 0 0 0 3 0 0 0 0 0 0 0 0 0 0 0 0 0 0 0 0 0 0 0 0 0 0 0 0 0 0 0 0 0 0 0 0 0 0 0 0 0 0 0 0 0 0 0 18 59 0 0 0 0 0 0 0 0 0 0 0 0 0 0 0 0 0 0 0 0 0 0 0 0 0 0 0 80 0 0 0 1 0 0 0 0 0 0 0 0 54 0 0 0 0 0 0 0 0 0 0 0 0 0 0 0 0 0 0 0 0 0 0 0 0 0 0 0 0 0 0 0 0 0 0 0 0 0 0 0 1 0 0 0 0 0 0 0 0 0 72 0 0 0 0 0 0 0 0 0 0 0 0 0 0 0 0 0 0 0 0 0 0 0 0 0 0 0 0 0 0 0 0 0 0 0 0 0 0 0 0 0 0 0 0 0 0 0 0 0 0 0 0 0 0 0 0 0 0 0 0 0 0 0 0 0 0 0 0 0 0 0 0 0 0 0 0 0 0 0 0 6 0 0 0 0 0 0 0 0 0 0 0 0 0 0 0 0 0 0 0 0 0 0 0 0 0 0 0 0 0 0 0 0 0 0 0 0 0 0 0 0 0 0 0 0 0 0 0 0 0 0 0 0 0 0 0 0 0 0 0 0 0 0 0 0 0 0 0 0 0 0 0 0 0 0 0 0 0 0 0 0 0 0 0 0 0 0 0 0 0 0 0 0 0 0 0 0 0 0 0 17 0 0 0 0 0 0 0 0 0 0 0 0 0 0 0 0 0 0 0 0 0 0 0 0 0 0 0 0 0 0 0 0 0 0 0 0 0 0 0 0 0 0 0 0 0 0 0 0 0 0 0 0 0 0 0 0 0 0 0 0 0 0 0 0 0 0 0 0 0 0 0 0 0 0 0 0 0 0 0 0 0 0 0 0 0 0 0 0 0 0 0 0 0 0 0 0 0 0 0 0 0 0 0 0 0 0 0 0 0 0 0 0 0 0 0 0 0 0 0 0 0 0 0 0 0 0 0 0 0 0 0 0 0 0 0 0 0 0 0 0 0 0 0 0 0 0 0 0 0 0 0 0 0 0 0 0 0 0 0 0 0 0 0 0 0 0 0 0 154 0 0 0 0 0 0 0 0 0 0 0 0 0 0 0 0 0 0 0 0 0 0 0 0 0 0 0 0 0 0 0 0 0 0 0 0 0 0 0 0 0 0 38 0 0 0 0 0 0 0 0 0 14 0 0 0 0 0 0 0 0 0 0 0 0 0 0 0 0 0 0 0 0 0 0 0 0 0 0 0 0 0 0 0 0 0 0 0 0 0 0 0 0 0 0 0 0 0 0 0 0 0 0 0 0 0 0 0 0 0 0 0 0 0 0 0 0 0 0 0 0 0 0 0 0 0 0 0 0 0 0 0 0 0 0 0 0 0 0 0 0 0 0 0 0 0 0 0 0 0 0 0 0 0 0 0 0 0 0 0 0 0 0 0 0 0 0 0 0 0 0 0 0 0 0 0 0 0 0 0 0 0 0 0 0 0 0 0 0 0 0 6 0 35 0 0 0 0 0 0 0 0 0 0 0 0 0 0 0 0 0 0 0 0 0 0 54 0 0 30 0 108 0 0 0 0 0 0 0 0 0 0 0 0 0 0 0 0 0 0 0 0 0 0 0 0 0 0 0 0 0 0 0 0 0 0 0 0 0 0 0 0 0 12 0 0 0 0 0 0 0 0 0 0 0 0 0 0 0 0 0 0 0 0 0 0 0 0 0 0 0 0 0 0 0 0 0 0 0 0 0 0 0 0 0 0 0 0 0 0 0 0 0 0 0 0 0 0 0 16 0 0 0 0 0 0 0 0 70 0 0 9 0 0 0 6 0 0 0 0 0 0 0 6 0 0 0 0 0 0 0 24 0 0 0 0 198 0 0 0 0 0 0 0 90 30 10 0 0 0 0 0 0 0 3 0 0 0 0 0 0 0 0 0 0 0 0 0 0 0 0 0 0 0 0 0 0 0 0 0 0 0 0 0 0 0 0 0 0 0 0 0 0 0 0 0 0 0 0 0 0 0 0 0 0 0 0 0 0 0 0 0 0 3 0 0 0 2 0 0 0 0 0 0 0 0 3 24 0 0 0 0 18 0 36 72 210 90 0 80 8 0 0 0 7 3 213 20 105 84 105 48 78 151 60 42 166 160 169 66 0 0 0 0 0 0 0 8 0 0 0 0 0 0 0 0 0 0 0 0 0 0 0 0 0 0 0 0 0 0 0 0 143 0 0 0 144 0 0 0 0 20 0 84 25 102 4 0 Printing Sanity3
offset_index value2384
offset list size2384
reward size2384
potential size2384
-----------------------------------------------------------------------------------------------------------------------------------------------------------------------------------------------------

DRAM Statistics
 CHANNEL 0
 RQ ROW_BUFFER_HIT:      87953  ROW_BUFFER_MISS:     289639
 DBUS_CONGESTED:        123
 WQ ROW_BUFFER_HIT:      36403  ROW_BUFFER_MISS:     187044  FULL:          0

 AVG_CONGESTED_CYCLE: 4
 All warmup complete: 2
Channel 0 Bank busy for read cycles: 0
Channel 0 Bank busy for write cycles: 0
Channel 0
Rank 0
0banks busy for read cycles: 406105837
0banks busy for write cycles: 109363
1banks busy for read cycles: 26282531
1banks busy for write cycles: 15240715
2banks busy for read cycles: 6528704
2banks busy for write cycles: 3552695
3banks busy for read cycles: 1475284
3banks busy for write cycles: 1534795
4banks busy for read cycles: 419434
4banks busy for write cycles: 998726
5banks busy for read cycles: 157906
5banks busy for write cycles: 767120
6banks busy for read cycles: 75104
6banks busy for write cycles: 588607
7banks busy for read cycles: 45773
7banks busy for write cycles: 471083
8banks busy for read cycles: 107843
8banks busy for write cycles: 473598

CPU 0 Branch Prediction Accuracy: 99.8311% MPKI: 0.303505 Average ROB Occupancy at Mispredict: 46.975
Branch types
NOT_BRANCH: 164070825 82.0354%
BRANCH_DIRECT_JUMP: 1867626 0.933813%
BRANCH_INDIRECT: 9379895 4.68995%
BRANCH_CONDITIONAL: 18176772 9.08839%
BRANCH_DIRECT_CALL: 2585717 1.29286%
BRANCH_INDIRECT_CALL: 665918 0.332959%
BRANCH_RETURN: 3252908 1.62645%
BRANCH_OTHER: 0 0%

DRAM PAGES: 1048576
Allocated PAGES: 6471
