
*** ChampSim Multicore Out-of-Order Simulator ***

Warmup Instructions: 50000000
Simulation Instructions: 200000000
Number of CPUs: 1
LLC sets: 2048
LLC ways: 16
Off-chip DRAM Size: 4096 MB Channels: 1 Width: 64-bit Data Rate: 6400 MT/s
CPU 0 runs traces/spec2k17/client_006.champsimtrace.xz
.xz
BTB has LRU replacement policy
ITLB has LRU replacement policy
DTLB has LRU replacement policy
STLB has LRU replacement policy
L1I has LRU replacement policy
L1D has LRU replacement policy
Initialize SRRIP state for L2C
Initialize DRRIP state for LLC
Heartbeat CPU 0 instructions: 10000000 cycles: 3270831 heartbeat IPC: 3.05733 cumulative IPC: 3.05733 (Simulation time: 0 hr 0 min 52 sec) 
Heartbeat CPU 0 instructions: 20000002 cycles: 6465741 heartbeat IPC: 3.12998 cumulative IPC: 3.09323 (Simulation time: 0 hr 1 min 27 sec) 
Heartbeat CPU 0 instructions: 30000000 cycles: 9248635 heartbeat IPC: 3.59338 cumulative IPC: 3.24372 (Simulation time: 0 hr 1 min 54 sec) 
Heartbeat CPU 0 instructions: 40000001 cycles: 12129618 heartbeat IPC: 3.47104 cumulative IPC: 3.29771 (Simulation time: 0 hr 2 min 24 sec) 
Heartbeat CPU 0 instructions: 50000001 cycles: 15294366 heartbeat IPC: 3.15981 cumulative IPC: 3.26918 (Simulation time: 0 hr 2 min 58 sec) 

Warmup complete CPU 0 instructions: 50000001 cycles: 15294366 (Simulation time: 0 hr 2 min 58 sec) 

Heartbeat CPU 0 instructions: 60000000 cycles: 34281121 heartbeat IPC: 0.526683 cumulative IPC: 0.526683 (Simulation time: 0 hr 3 min 43 sec) 
Heartbeat CPU 0 instructions: 70000000 cycles: 59054371 heartbeat IPC: 0.403661 cumulative IPC: 0.457038 (Simulation time: 0 hr 4 min 43 sec) 
Heartbeat CPU 0 instructions: 80000000 cycles: 77475502 heartbeat IPC: 0.542855 cumulative IPC: 0.482461 (Simulation time: 0 hr 5 min 40 sec) 
Heartbeat CPU 0 instructions: 90000000 cycles: 98917607 heartbeat IPC: 0.466372 cumulative IPC: 0.478336 (Simulation time: 0 hr 6 min 22 sec) 
Heartbeat CPU 0 instructions: 100000002 cycles: 117524842 heartbeat IPC: 0.537425 cumulative IPC: 0.489091 (Simulation time: 0 hr 6 min 59 sec) 
*** Reached end of trace for Core: 0 Repeating trace: traces/spec2k17/client_006.champsimtrace.xz
Heartbeat CPU 0 instructions: 110000000 cycles: 134766221 heartbeat IPC: 0.58 cumulative IPC: 0.50221 (Simulation time: 0 hr 8 min 4 sec) 
Heartbeat CPU 0 instructions: 120000003 cycles: 152066494 heartbeat IPC: 0.578026 cumulative IPC: 0.5118 (Simulation time: 0 hr 9 min 13 sec) 
Heartbeat CPU 0 instructions: 130000002 cycles: 169573953 heartbeat IPC: 0.571185 cumulative IPC: 0.518539 (Simulation time: 0 hr 10 min 5 sec) 
Heartbeat CPU 0 instructions: 140000002 cycles: 186412758 heartbeat IPC: 0.593866 cumulative IPC: 0.525952 (Simulation time: 0 hr 10 min 59 sec) 
Heartbeat CPU 0 instructions: 150000001 cycles: 207624038 heartbeat IPC: 0.471447 cumulative IPC: 0.519941 (Simulation time: 0 hr 12 min 11 sec) 
Heartbeat CPU 0 instructions: 160000000 cycles: 225288284 heartbeat IPC: 0.566115 cumulative IPC: 0.523825 (Simulation time: 0 hr 13 min 6 sec) 
Heartbeat CPU 0 instructions: 170000000 cycles: 250604222 heartbeat IPC: 0.395008 cumulative IPC: 0.509966 (Simulation time: 0 hr 13 min 56 sec) 
Heartbeat CPU 0 instructions: 180000003 cycles: 269368519 heartbeat IPC: 0.532927 cumulative IPC: 0.511662 (Simulation time: 0 hr 15 min 1 sec) 
Heartbeat CPU 0 instructions: 190000000 cycles: 290385004 heartbeat IPC: 0.475817 cumulative IPC: 0.508923 (Simulation time: 0 hr 15 min 55 sec) 
Heartbeat CPU 0 instructions: 200000000 cycles: 308891143 heartbeat IPC: 0.540361 cumulative IPC: 0.510905 (Simulation time: 0 hr 16 min 46 sec) 
*** Reached end of trace for Core: 0 Repeating trace: traces/spec2k17/client_006.champsimtrace.xz
Heartbeat CPU 0 instructions: 210000003 cycles: 326230985 heartbeat IPC: 0.576707 cumulative IPC: 0.514574 (Simulation time: 0 hr 17 min 51 sec) 
Heartbeat CPU 0 instructions: 220000000 cycles: 343573776 heartbeat IPC: 0.576608 cumulative IPC: 0.517852 (Simulation time: 0 hr 19 min 3 sec) 
Heartbeat CPU 0 instructions: 230000000 cycles: 360202398 heartbeat IPC: 0.601373 cumulative IPC: 0.521878 (Simulation time: 0 hr 20 min 0 sec) 
Heartbeat CPU 0 instructions: 240000002 cycles: 377638459 heartbeat IPC: 0.573524 cumulative IPC: 0.524363 (Simulation time: 0 hr 20 min 56 sec) 
Heartbeat CPU 0 instructions: 250000000 cycles: 398066610 heartbeat IPC: 0.48952 cumulative IPC: 0.522504 (Simulation time: 0 hr 22 min 3 sec) 
Finished CPU 0 instructions: 200000003 cycles: 382772252 cumulative IPC: 0.522504 (Simulation time: 0 hr 22 min 3 sec) 

ChampSim completed all CPUs

Region of Interest Statistics

CPU 0 cumulative IPC: 0.522504 instructions: 200000003 cycles: 382772252
ITLB TOTAL     ACCESS:   31691880  HIT:   31196834  MISS:     495046  HIT %:    98.4379  MISS %:    1.56206   MPKI: 2.47523
ITLB LOAD TRANSLATION ACCESS:   31691880  HIT:   31196834  MISS:     495046  HIT %:    98.4379  MISS %:    1.56206   MPKI: 2.47523
ITLB PREFETCH  REQUESTED:          0  ISSUED:          0  USEFUL:          0  USELESS:          0
ITLB USEFUL LOAD PREFETCHES:          0 PREFETCH ISSUED TO LOWER LEVEL:          0  ACCURACY: -nan
ITLB TIMELY PREFETCHES:          0 LATE PREFETCHES: 0 DROPPED PREFETCHES: 0
ITLB PREFETCHES SAME FILL-ORIGIN LEVEL: 0 DIFFERENT FILL-ORIGIN LEVEL: 0
ITLB AVERAGE MISS LATENCY: 11.1407 cycles
ITLB RQ	ACCESS:   37643312	FORWARD:          0	MERGED:    5896580	TO_CACHE:   31746732

DTLB TOTAL     ACCESS:   40932748  HIT:   39686209  MISS:    1246539  HIT %:    96.9547  MISS %:    3.04533   MPKI: 6.23269
DTLB LOAD TRANSLATION ACCESS:   40932748  HIT:   39686209  MISS:    1246539  HIT %:    96.9547  MISS %:    3.04533   MPKI: 6.23269
DTLB PREFETCH  REQUESTED:          0  ISSUED:          0  USEFUL:          0  USELESS:          0
DTLB USEFUL LOAD PREFETCHES:          0 PREFETCH ISSUED TO LOWER LEVEL:          0  ACCURACY: -nan
DTLB TIMELY PREFETCHES:          0 LATE PREFETCHES: 0 DROPPED PREFETCHES: 0
DTLB PREFETCHES SAME FILL-ORIGIN LEVEL: 0 DIFFERENT FILL-ORIGIN LEVEL: 0
DTLB AVERAGE MISS LATENCY: 14.6167 cycles
DTLB RQ	ACCESS:   50616555	FORWARD:          0	MERGED:    9621811	TO_CACHE:   40994744

STLB TOTAL     ACCESS:    6425551  HIT:    6333631  MISS:      91920  HIT %:    98.5695  MISS %:    1.43054   MPKI: 0.4596
STLB LOAD TRANSLATION ACCESS:    1741585  HIT:    1652369  MISS:      89216  HIT %:    94.8773  MISS %:    5.12269   MPKI: 0.44608
STLB TRANSLATION FROM L1D PREFETCHER ACCESS:    4683966  HIT:    4681262  MISS:       2704  HIT %:    99.9423  MISS %:  0.0577289   MPKI: 0.01352
STLB PREFETCH  REQUESTED:          0  ISSUED:          0  USEFUL:       2529  USELESS:        163
STLB USEFUL LOAD PREFETCHES:       2529 PREFETCH ISSUED TO LOWER LEVEL:          0  ACCURACY: inf
STLB TIMELY PREFETCHES:       2529 LATE PREFETCHES: 516 DROPPED PREFETCHES: 136096
STLB PREFETCHES SAME FILL-ORIGIN LEVEL: 0 DIFFERENT FILL-ORIGIN LEVEL: 0
STLB AVERAGE MISS LATENCY: 93.5912 cycles
STLB RQ	ACCESS:    7586336	FORWARD:          0	MERGED:    1015935	TO_CACHE:    6570401

STLB Hit, L1D data hit: 0
STLB Hit, L2C data hit: 0
STLB Hit, LLC data hit: 0
STLB Hit, LLC data miss: 0
STLB STLB hints to L2: 0
L1D TOTAL     ACCESS:   55158006  HIT:   52397597  MISS:    2760409  HIT %:    94.9955  MISS %:    5.00455   MPKI: 13.802
L1D LOAD      ACCESS:   33598360  HIT:   31216073  MISS:    2382287  HIT %:    92.9095  MISS %:    7.09049   MPKI: 11.9114
L1D RFO       ACCESS:   16222509  HIT:   15958417  MISS:     264092  HIT %:    98.3721  MISS %:    1.62794   MPKI: 1.32046
L1D PREFETCH  ACCESS:    5337137  HIT:    5223107  MISS:     114030  HIT %:    97.8635  MISS %:    2.13654   MPKI: 0.57015
AGUS PREFETCH L1 MISS: 0
L1D PREFETCH  REQUESTED:   13089609  ISSUED:   13089072  USEFUL:      64190  USELESS:      49833
L1D USEFUL LOAD PREFETCHES:      64190 PREFETCH ISSUED TO LOWER LEVEL:     217992  ACCURACY: 29.446
L1D TIMELY PREFETCHES:      64190 LATE PREFETCHES: 103737 DROPPED PREFETCHES: 148307
L1D PREFETCHES SAME FILL-ORIGIN LEVEL: 217992 DIFFERENT FILL-ORIGIN LEVEL: 0
L1D AVERAGE MISS LATENCY: 9.14232e+06 cycles
L1D RQ	ACCESS:   49391814	FORWARD:          0	MERGED:   15323919	TO_CACHE:   33852688
L1D WQ	ACCESS:   17096511	FORWARD:     231518	MERGED:     332644	TO_CACHE:   16763867
L1D PQ	ACCESS:    7244321	FORWARD:          0	MERGED:    1383259	TO_CACHE:    5844751

L1D UNIQUE REGIONS ACCESSED: 0
L1D REGIONS CONFLICTS: 0
L1D Cross Page Prefetch Requests: 4005369
L1D Same Page Prefetch Requests: 4243600
L1D ROI Sum of L1D PQ occupancy: 85411057
L1D PREFETCHES PUSHED FROM L2C: 0
L1I TOTAL     ACCESS:   36773998  HIT:   34326178  MISS:    2447820  HIT %:    93.3436  MISS %:    6.65639   MPKI: 12.2391
L1I LOAD      ACCESS:   36773998  HIT:   34326178  MISS:    2447820  HIT %:    93.3436  MISS %:    6.65639   MPKI: 12.2391
L1I PREFETCH  REQUESTED:          0  ISSUED:          0  USEFUL:          0  USELESS:          0
L1I USEFUL LOAD PREFETCHES:          0 PREFETCH ISSUED TO LOWER LEVEL:          0  ACCURACY: -nan
L1I TIMELY PREFETCHES:          0 LATE PREFETCHES: 0 DROPPED PREFETCHES: 0
L1I PREFETCHES SAME FILL-ORIGIN LEVEL: 0 DIFFERENT FILL-ORIGIN LEVEL: 0
L1I AVERAGE MISS LATENCY: 19.8684 cycles
L1I RQ	ACCESS:   57397587	FORWARD:          0	MERGED:   19754275	TO_CACHE:   37643312

BTB TOTAL     ACCESS:   25851423  HIT:   24123555  MISS:    1727868  HIT %:    93.3162  MISS %:    6.68384   MPKI: 8.63934
BTB BRANCH_DIRECT_JUMP	ACCESS:    1806110  HIT:    1783873  MISS:      22237
BTB BRANCH_INDIRECT	ACCESS:    7197239  HIT:    6432275  MISS:     764964
BTB BRANCH_CONDITIONAL	ACCESS:   11207262  HIT:   11165232  MISS:      42030
BTB BRANCH_DIRECT_CALL	ACCESS:    1904338  HIT:    1877545  MISS:      26793
BTB BRANCH_INDIRECT_CALL	ACCESS:     912580  HIT:     722486  MISS:     190094
BTB BRANCH_RETURN	ACCESS:    2823894  HIT:    2142144  MISS:     681750
BTB BRANCH_OTHER ACCESS:          0  HIT:          0  MISS:          0

L2C TOTAL     ACCESS:    6281697  HIT:    4532695  MISS:    1749002  HIT %:    72.1572  MISS %:    27.8428   MPKI: 8.74501
L2C LOAD      ACCESS:    4726283  HIT:    3344700  MISS:    1381583  HIT %:    70.7681  MISS %:    29.2319   MPKI: 6.90791
L2C DATA LOAD MPKI: 6.26663
L2C INSTRUCTION LOAD MPKI: 0.64128
L2C RFO       ACCESS:     263860  HIT:      80781  MISS:     183079  HIT %:    30.6151  MISS %:    69.3849   MPKI: 0.915395
L2C PREFETCH  ACCESS:     217922  HIT:      99593  MISS:     118329  HIT %:    45.7012  MISS %:    54.2988   MPKI: 0.591645
AGUS PREFETCH L1 MISS: 0
L2C DATA PREFETCH MPKI: 0.591645
L2C INSTRUCTION PREFETCH MPKI: 0
L2C WRITEBACK ACCESS:     813594  HIT:     798767  MISS:      14827  HIT %:    98.1776  MISS %:    1.82241   MPKI: 0.074135
L2C LOAD TRANSLATION ACCESS:      98980  HIT:      52538  MISS:      46442  HIT %:    53.0794  MISS %:    46.9206   MPKI: 0.23221
L2C TRANSLATION FROM L1D PREFETCHER ACCESS:     161058  HIT:     156316  MISS:       4742  HIT %:    97.0557  MISS %:    2.94428   MPKI: 0.02371
L2C PREFETCH  REQUESTED:          0  ISSUED:          0  USEFUL:       7162  USELESS:     115861
L2C USEFUL LOAD PREFETCHES:       7162 PREFETCH ISSUED TO LOWER LEVEL:     118329  ACCURACY: 6.05262
L2C TIMELY PREFETCHES:       7162 LATE PREFETCHES: 0 DROPPED PREFETCHES: 0
L2C PREFETCHES SAME FILL-ORIGIN LEVEL: 0 DIFFERENT FILL-ORIGIN LEVEL: 0
L2C AVERAGE MISS LATENCY: 118.804 cycles
L2C RQ	ACCESS:    5250274	FORWARD:          0	MERGED:          0	TO_CACHE:    5250181
L2C WQ	ACCESS:     813594	FORWARD:        163	MERGED:          0	TO_CACHE:     813594
L2C PQ	ACCESS:     217992	FORWARD:          0	MERGED:          0	TO_CACHE:     217922

L2C Instructions Evicting Data 107913
L2C Translations Evicting Data 44609
L2C Data Evicting Data 1402710
L2C Instructions Evicting Instructions 15718
L2C Translations Evicting Instructions 4894
L2C Data Evicting Instructions 107294
L2C Instructions Evicting Translations 4625
L2C Translations Evicting Translations 1681
L2C Data Evicting Translations 44731
L2C Dense regions hint from L2: 0
PSCL5 TOTAL     ACCESS:     195766  HIT:     195766  MISS:          0  HIT %:        100  MISS %:          0   MPKI: 0
PSCL5 LOAD TRANSLATION ACCESS:      88702  HIT:      88702  MISS:          0  HIT %:        100  MISS %:          0   MPKI: 0
PSCL5 TRANSLATION FROM L1D PREFETCHER ACCESS:     107064  HIT:     107064  MISS:          0  HIT %:        100  MISS %:          0   MPKI: 0
PSCL5 PREFETCH  REQUESTED:          0  ISSUED:          0  USEFUL:          0  USELESS:          0
PSCL5 USEFUL LOAD PREFETCHES:          0 PREFETCH ISSUED TO LOWER LEVEL:          0  ACCURACY: -nan
PSCL5 TIMELY PREFETCHES:          0 LATE PREFETCHES: 0 DROPPED PREFETCHES: 0
PSCL5 PREFETCHES SAME FILL-ORIGIN LEVEL: 0 DIFFERENT FILL-ORIGIN LEVEL: 0

PSCL4 TOTAL     ACCESS:     181942  HIT:     181837  MISS:        105  HIT %:    99.9423  MISS %:  0.0577107   MPKI: 0.000525
PSCL4 LOAD TRANSLATION ACCESS:      82019  HIT:      81914  MISS:        105  HIT %:     99.872  MISS %:   0.128019   MPKI: 0.000525
PSCL4 TRANSLATION FROM L1D PREFETCHER ACCESS:      99923  HIT:      99923  MISS:          0  HIT %:        100  MISS %:          0   MPKI: 0
PSCL4 PREFETCH  REQUESTED:          0  ISSUED:          0  USEFUL:          0  USELESS:          0
PSCL4 USEFUL LOAD PREFETCHES:          0 PREFETCH ISSUED TO LOWER LEVEL:          0  ACCURACY: -nan
PSCL4 TIMELY PREFETCHES:          0 LATE PREFETCHES: 0 DROPPED PREFETCHES: 0
PSCL4 PREFETCHES SAME FILL-ORIGIN LEVEL: 0 DIFFERENT FILL-ORIGIN LEVEL: 0

PSCL3 TOTAL     ACCESS:     171474  HIT:     171189  MISS:        285  HIT %:    99.8338  MISS %:   0.166206   MPKI: 0.001425
PSCL3 LOAD TRANSLATION ACCESS:      88472  HIT:      88187  MISS:        285  HIT %:    99.6779  MISS %:   0.322136   MPKI: 0.001425
PSCL3 TRANSLATION FROM L1D PREFETCHER ACCESS:      83002  HIT:      83002  MISS:          0  HIT %:        100  MISS %:          0   MPKI: 0
PSCL3 PREFETCH  REQUESTED:          0  ISSUED:          0  USEFUL:          0  USELESS:          0
PSCL3 USEFUL LOAD PREFETCHES:          0 PREFETCH ISSUED TO LOWER LEVEL:          0  ACCURACY: -nan
PSCL3 TIMELY PREFETCHES:          0 LATE PREFETCHES: 0 DROPPED PREFETCHES: 0
PSCL3 PREFETCHES SAME FILL-ORIGIN LEVEL: 0 DIFFERENT FILL-ORIGIN LEVEL: 0

PSCL2 TOTAL     ACCESS:      94451  HIT:      84284  MISS:      10167  HIT %:    89.2357  MISS %:    10.7643   MPKI: 0.050835
PSCL2 LOAD TRANSLATION ACCESS:      88956  HIT:      78789  MISS:      10167  HIT %:    88.5708  MISS %:    11.4292   MPKI: 0.050835
PSCL2 TRANSLATION FROM L1D PREFETCHER ACCESS:       5495  HIT:       5495  MISS:          0  HIT %:        100  MISS %:          0   MPKI: 0
PSCL2 PREFETCH  REQUESTED:          0  ISSUED:          0  USEFUL:          0  USELESS:          0
PSCL2 USEFUL LOAD PREFETCHES:          0 PREFETCH ISSUED TO LOWER LEVEL:          0  ACCURACY: -nan
PSCL2 TIMELY PREFETCHES:          0 LATE PREFETCHES: 0 DROPPED PREFETCHES: 0
PSCL2 PREFETCHES SAME FILL-ORIGIN LEVEL: 0 DIFFERENT FILL-ORIGIN LEVEL: 0

LLC TOTAL     ACCESS:    2225750  HIT:    1262339  MISS:     963411  HIT %:    56.7152  MISS %:    43.2848   MPKI: 4.81705
LLC LOAD      ACCESS:    1381583  HIT:     671709  MISS:     709874  HIT %:    48.6188  MISS %:    51.3812   MPKI: 3.54937
LLC RFO       ACCESS:     183079  HIT:      22675  MISS:     160404  HIT %:    12.3854  MISS %:    87.6146   MPKI: 0.80202
LLC PREFETCH  ACCESS:     118327  HIT:      80700  MISS:      37627  HIT %:    68.2008  MISS %:    31.7992   MPKI: 0.188135
AGUS PREFETCH L1 MISS: 0
LLC WRITEBACK ACCESS:     491577  HIT:     462907  MISS:      28670  HIT %:    94.1677  MISS %:    5.83225   MPKI: 0.14335
LLC LOAD TRANSLATION ACCESS:      46442  HIT:      22333  MISS:      24109  HIT %:    48.0879  MISS %:    51.9121   MPKI: 0.120545
LLC TRANSLATION FROM L1D PREFETCHER ACCESS:       4742  HIT:       2015  MISS:       2727  HIT %:    42.4926  MISS %:    57.5074   MPKI: 0.013635
LLC PREFETCH  REQUESTED:          0  ISSUED:          0  USEFUL:       5431  USELESS:      35480
LLC USEFUL LOAD PREFETCHES:       5431 PREFETCH ISSUED TO LOWER LEVEL:      37627  ACCURACY: 14.4338
LLC TIMELY PREFETCHES:       5431 LATE PREFETCHES: 0 DROPPED PREFETCHES: 0
LLC PREFETCHES SAME FILL-ORIGIN LEVEL: 0 DIFFERENT FILL-ORIGIN LEVEL: 0
LLC AVERAGE MISS LATENCY: 161.632 cycles
LLC RQ	ACCESS:    1615846	FORWARD:          0	MERGED:          0	TO_CACHE:    1615846
LLC WQ	ACCESS:     491577	FORWARD:          2	MERGED:          0	TO_CACHE:     491577
LLC PQ	ACCESS:     118329	FORWARD:          0	MERGED:          0	TO_CACHE:     118327

LLC Dense regions hint to LLC: 0

RAW hits: 2640665
Loads Generated: 52032481
Loads sent to L1D: 49391814
Stores Generated: 17096501
Stores sent to L1D: 17096511
Major fault: 0 Minor fault: 10830
Allocated PAGES: 10830
Completed 

DRAM Statistics
 CHANNEL 0
 RQ ROW_BUFFER_HIT:     197192  ROW_BUFFER_MISS:     737533
 DBUS_CONGESTED:        357
 WQ ROW_BUFFER_HIT:     115840  ROW_BUFFER_MISS:     322512  FULL:          0

 AVG_CONGESTED_CYCLE: 4
 All warmup complete: 2
Channel 0 Bank busy for read cycles: 0
Channel 0 Bank busy for write cycles: 0
Channel 0
Rank 0
0banks busy for read cycles: 253173556
0banks busy for write cycles: 176770
1banks busy for read cycles: 61728204
1banks busy for write cycles: 26607275
2banks busy for read cycles: 13490792
2banks busy for write cycles: 9146698
3banks busy for read cycles: 4313221
3banks busy for write cycles: 4086075
4banks busy for read cycles: 1529436
4banks busy for write cycles: 2095147
5banks busy for read cycles: 517606
5banks busy for write cycles: 1065347
6banks busy for read cycles: 399473
6banks busy for write cycles: 577468
7banks busy for read cycles: 360927
7banks busy for write cycles: 520697
8banks busy for read cycles: 675183
8banks busy for write cycles: 2308378

CPU 0 Branch Prediction Accuracy: 99.0203% MPKI: 1.6776 Average ROB Occupancy at Mispredict: 39.3063
Branch types
NOT_BRANCH: 165753023 82.8765%
BRANCH_DIRECT_JUMP: 1806110 0.903055%
BRANCH_INDIRECT: 7197239 3.59862%
BRANCH_CONDITIONAL: 19602510 9.80125%
BRANCH_DIRECT_CALL: 1904338 0.952169%
BRANCH_INDIRECT_CALL: 912580 0.45629%
BRANCH_RETURN: 2823894 1.41195%
BRANCH_OTHER: 0 0%

DRAM PAGES: 1048576
Allocated PAGES: 10830
