
*** ChampSim Multicore Out-of-Order Simulator ***

Warmup Instructions: 50000000
Simulation Instructions: 200000000
Number of CPUs: 1
LLC sets: 2048
LLC ways: 16
Off-chip DRAM Size: 4096 MB Channels: 1 Width: 64-bit Data Rate: 6400 MT/s
CPU 0 runs traces/spec2k17/server_026.champsimtrace.xz
.xz
BTB has LRU replacement policy
ITLB has LRU replacement policy
DTLB has LRU replacement policy
STLB has LRU replacement policy
L1I has LRU replacement policy
L1D has LRU replacement policy
Initialize SRRIP state for L2C
Initialize DRRIP state for LLC
Heartbeat CPU 0 instructions: 10000003 cycles: 2824921 heartbeat IPC: 3.53992 cumulative IPC: 3.53992 (Simulation time: 0 hr 0 min 54 sec) 
Heartbeat CPU 0 instructions: 20000001 cycles: 5645887 heartbeat IPC: 3.54488 cumulative IPC: 3.5424 (Simulation time: 0 hr 1 min 33 sec) 
Heartbeat CPU 0 instructions: 30000002 cycles: 8466163 heartbeat IPC: 3.54575 cumulative IPC: 3.54352 (Simulation time: 0 hr 2 min 10 sec) 
Heartbeat CPU 0 instructions: 40000001 cycles: 11289655 heartbeat IPC: 3.54171 cumulative IPC: 3.54307 (Simulation time: 0 hr 2 min 49 sec) 
Heartbeat CPU 0 instructions: 50000000 cycles: 14112572 heartbeat IPC: 3.54243 cumulative IPC: 3.54294 (Simulation time: 0 hr 3 min 27 sec) 

Warmup complete CPU 0 instructions: 50000004 cycles: 14112573 (Simulation time: 0 hr 3 min 27 sec) 

Heartbeat CPU 0 instructions: 60000001 cycles: 46228169 heartbeat IPC: 0.311375 cumulative IPC: 0.311375 (Simulation time: 0 hr 4 min 32 sec) 
*** Reached end of trace for Core: 0 Repeating trace: traces/spec2k17/server_026.champsimtrace.xz
Heartbeat CPU 0 instructions: 70000000 cycles: 78183039 heartbeat IPC: 0.312941 cumulative IPC: 0.312156 (Simulation time: 0 hr 5 min 37 sec) 
Heartbeat CPU 0 instructions: 80000000 cycles: 110040159 heartbeat IPC: 0.313902 cumulative IPC: 0.312736 (Simulation time: 0 hr 6 min 27 sec) 
Heartbeat CPU 0 instructions: 90000003 cycles: 141905470 heartbeat IPC: 0.313821 cumulative IPC: 0.313006 (Simulation time: 0 hr 7 min 30 sec) 
Heartbeat CPU 0 instructions: 100000000 cycles: 173780110 heartbeat IPC: 0.313729 cumulative IPC: 0.313151 (Simulation time: 0 hr 8 min 35 sec) 
Heartbeat CPU 0 instructions: 110000000 cycles: 205504221 heartbeat IPC: 0.315218 cumulative IPC: 0.313493 (Simulation time: 0 hr 9 min 39 sec) 
Heartbeat CPU 0 instructions: 120000000 cycles: 237352657 heartbeat IPC: 0.313987 cumulative IPC: 0.313564 (Simulation time: 0 hr 10 min 44 sec) 
*** Reached end of trace for Core: 0 Repeating trace: traces/spec2k17/server_026.champsimtrace.xz
Heartbeat CPU 0 instructions: 130000002 cycles: 269039602 heartbeat IPC: 0.315587 cumulative IPC: 0.313815 (Simulation time: 0 hr 11 min 54 sec) 
Heartbeat CPU 0 instructions: 140000002 cycles: 300715208 heartbeat IPC: 0.3157 cumulative IPC: 0.314024 (Simulation time: 0 hr 12 min 59 sec) 
Heartbeat CPU 0 instructions: 150000000 cycles: 332360828 heartbeat IPC: 0.315999 cumulative IPC: 0.31422 (Simulation time: 0 hr 14 min 9 sec) 
Heartbeat CPU 0 instructions: 160000001 cycles: 364023832 heartbeat IPC: 0.315826 cumulative IPC: 0.314365 (Simulation time: 0 hr 15 min 23 sec) 
Heartbeat CPU 0 instructions: 170000000 cycles: 395723370 heartbeat IPC: 0.315462 cumulative IPC: 0.314456 (Simulation time: 0 hr 16 min 30 sec) 
Heartbeat CPU 0 instructions: 180000003 cycles: 427370034 heartbeat IPC: 0.315989 cumulative IPC: 0.314574 (Simulation time: 0 hr 17 min 37 sec) 
*** Reached end of trace for Core: 0 Repeating trace: traces/spec2k17/server_026.champsimtrace.xz
Heartbeat CPU 0 instructions: 190000000 cycles: 458983599 heartbeat IPC: 0.31632 cumulative IPC: 0.314698 (Simulation time: 0 hr 18 min 40 sec) 
Heartbeat CPU 0 instructions: 200000003 cycles: 490574988 heartbeat IPC: 0.316542 cumulative IPC: 0.31482 (Simulation time: 0 hr 19 min 44 sec) 
Heartbeat CPU 0 instructions: 210000000 cycles: 522184985 heartbeat IPC: 0.316356 cumulative IPC: 0.314916 (Simulation time: 0 hr 20 min 50 sec) 
Heartbeat CPU 0 instructions: 220000000 cycles: 553801006 heartbeat IPC: 0.316295 cumulative IPC: 0.314997 (Simulation time: 0 hr 21 min 48 sec) 
Heartbeat CPU 0 instructions: 230000000 cycles: 585479146 heartbeat IPC: 0.315675 cumulative IPC: 0.315034 (Simulation time: 0 hr 22 min 50 sec) 
Heartbeat CPU 0 instructions: 240000000 cycles: 617068087 heartbeat IPC: 0.316566 cumulative IPC: 0.315114 (Simulation time: 0 hr 23 min 57 sec) 
*** Reached end of trace for Core: 0 Repeating trace: traces/spec2k17/server_026.champsimtrace.xz
Heartbeat CPU 0 instructions: 250000003 cycles: 648712683 heartbeat IPC: 0.31601 cumulative IPC: 0.315159 (Simulation time: 0 hr 24 min 54 sec) 
Finished CPU 0 instructions: 200000003 cycles: 634600111 cumulative IPC: 0.315159 (Simulation time: 0 hr 24 min 54 sec) 

ChampSim completed all CPUs

Region of Interest Statistics

CPU 0 cumulative IPC: 0.315159 instructions: 200000003 cycles: 634600111
ITLB TOTAL     ACCESS:   34751234  HIT:   32740022  MISS:    2011212  HIT %:    94.2125  MISS %:    5.78745   MPKI: 10.0561
ITLB LOAD TRANSLATION ACCESS:   34751234  HIT:   32740022  MISS:    2011212  HIT %:    94.2125  MISS %:    5.78745   MPKI: 10.0561
ITLB PREFETCH  REQUESTED:          0  ISSUED:          0  USEFUL:          0  USELESS:          0
ITLB USEFUL LOAD PREFETCHES:          0 PREFETCH ISSUED TO LOWER LEVEL:          0  ACCURACY: -nan
ITLB TIMELY PREFETCHES:          0 LATE PREFETCHES: 0 DROPPED PREFETCHES: 0
ITLB PREFETCHES SAME FILL-ORIGIN LEVEL: 0 DIFFERENT FILL-ORIGIN LEVEL: 0
ITLB AVERAGE MISS LATENCY: 9.04512 cycles
ITLB RQ	ACCESS:   40934873	FORWARD:          0	MERGED:    5701812	TO_CACHE:   35233061

DTLB TOTAL     ACCESS:   46304817  HIT:   44468352  MISS:    1836465  HIT %:     96.034  MISS %:    3.96603   MPKI: 9.18232
DTLB LOAD TRANSLATION ACCESS:   46304817  HIT:   44468352  MISS:    1836465  HIT %:     96.034  MISS %:    3.96603   MPKI: 9.18232
DTLB PREFETCH  REQUESTED:          0  ISSUED:          0  USEFUL:          0  USELESS:          0
DTLB USEFUL LOAD PREFETCHES:          0 PREFETCH ISSUED TO LOWER LEVEL:          0  ACCURACY: -nan
DTLB TIMELY PREFETCHES:          0 LATE PREFETCHES: 0 DROPPED PREFETCHES: 0
DTLB PREFETCHES SAME FILL-ORIGIN LEVEL: 0 DIFFERENT FILL-ORIGIN LEVEL: 0
DTLB AVERAGE MISS LATENCY: 8.48708 cycles
DTLB RQ	ACCESS:   60898121	FORWARD:          0	MERGED:   14528174	TO_CACHE:   46369947

STLB TOTAL     ACCESS:   19645503  HIT:   19635088  MISS:      10415  HIT %:     99.947  MISS %:  0.0530147   MPKI: 0.052075
STLB LOAD TRANSLATION ACCESS:    3847677  HIT:    3838851  MISS:       8826  HIT %:    99.7706  MISS %:   0.229385   MPKI: 0.04413
STLB TRANSLATION FROM L1D PREFETCHER ACCESS:   15797826  HIT:   15796237  MISS:       1589  HIT %:    99.9899  MISS %:  0.0100583   MPKI: 0.007945
STLB PREFETCH  REQUESTED:          0  ISSUED:          0  USEFUL:       1047  USELESS:        520
STLB USEFUL LOAD PREFETCHES:       1047 PREFETCH ISSUED TO LOWER LEVEL:          0  ACCURACY: inf
STLB TIMELY PREFETCHES:       1047 LATE PREFETCHES: 155 DROPPED PREFETCHES: 254483
STLB PREFETCHES SAME FILL-ORIGIN LEVEL: 0 DIFFERENT FILL-ORIGIN LEVEL: 0
STLB AVERAGE MISS LATENCY: 46.8489 cycles
STLB RQ	ACCESS:   22483633	FORWARD:          0	MERGED:    2583386	TO_CACHE:   19900247

STLB Hit, L1D data hit: 0
STLB Hit, L2C data hit: 0
STLB Hit, LLC data hit: 0
STLB Hit, LLC data miss: 0
STLB STLB hints to L2: 0
L1D TOTAL     ACCESS:   76594589  HIT:   72038931  MISS:    4555658  HIT %:    94.0522  MISS %:    5.94775   MPKI: 22.7783
L1D LOAD      ACCESS:   34204455  HIT:   31893104  MISS:    2311351  HIT %:    93.2425  MISS %:    6.75746   MPKI: 11.5568
L1D RFO       ACCESS:   24909889  HIT:   23829928  MISS:    1079961  HIT %:    95.6645  MISS %:    4.33547   MPKI: 5.3998
L1D PREFETCH  ACCESS:   17480245  HIT:   16315899  MISS:    1164346  HIT %:    93.3391  MISS %:    6.66092   MPKI: 5.82173
AGUS PREFETCH L1 MISS: 0
L1D PREFETCH  REQUESTED:   40245218  ISSUED:   40245214  USEFUL:     802292  USELESS:     362001
L1D USEFUL LOAD PREFETCHES:     802292 PREFETCH ISSUED TO LOWER LEVEL:    1560365  ACCURACY: 51.4169
L1D TIMELY PREFETCHES:     802292 LATE PREFETCHES: 391245 DROPPED PREFETCHES: 274671
L1D PREFETCHES SAME FILL-ORIGIN LEVEL: 1560365 DIFFERENT FILL-ORIGIN LEVEL: 0
L1D AVERAGE MISS LATENCY: 3.37869e+07 cycles
L1D RQ	ACCESS:   47436242	FORWARD:          0	MERGED:   12838175	TO_CACHE:   34300667
L1D WQ	ACCESS:   26764780	FORWARD:     334290	MERGED:     167326	TO_CACHE:   26597454
L1D PQ	ACCESS:   21609258	FORWARD:          0	MERGED:    2936412	TO_CACHE:   18635956

L1D UNIQUE REGIONS ACCESSED: 0
L1D REGIONS CONFLICTS: 0
L1D Cross Page Prefetch Requests: 14425487
L1D Same Page Prefetch Requests: 8250151
L1D ROI Sum of L1D PQ occupancy: 261339697
L1D PREFETCHES PUSHED FROM L2C: 0
L1I TOTAL     ACCESS:   39436491  HIT:   28908751  MISS:   10527740  HIT %:    73.3046  MISS %:    26.6954   MPKI: 52.6387
L1I LOAD      ACCESS:   39436491  HIT:   28908751  MISS:   10527740  HIT %:    73.3046  MISS %:    26.6954   MPKI: 52.6387
L1I PREFETCH  REQUESTED:          0  ISSUED:          0  USEFUL:          0  USELESS:          0
L1I USEFUL LOAD PREFETCHES:          0 PREFETCH ISSUED TO LOWER LEVEL:          0  ACCURACY: -nan
L1I TIMELY PREFETCHES:          0 LATE PREFETCHES: 0 DROPPED PREFETCHES: 0
L1I PREFETCHES SAME FILL-ORIGIN LEVEL: 0 DIFFERENT FILL-ORIGIN LEVEL: 0
L1I AVERAGE MISS LATENCY: 16.7559 cycles
L1I RQ	ACCESS:   57888080	FORWARD:          0	MERGED:   16953207	TO_CACHE:   40934873

BTB TOTAL     ACCESS:   29988877  HIT:   17348499  MISS:   12640378  HIT %:    57.8498  MISS %:    42.1502   MPKI: 63.2019
BTB BRANCH_DIRECT_JUMP	ACCESS:    2009046  HIT:    1127352  MISS:     881694
BTB BRANCH_INDIRECT	ACCESS:   11800645  HIT:    6994352  MISS:    4806293
BTB BRANCH_CONDITIONAL	ACCESS:    7683211  HIT:    6358422  MISS:    1324789
BTB BRANCH_DIRECT_CALL	ACCESS:    3580653  HIT:    1498237  MISS:    2082416
BTB BRANCH_INDIRECT_CALL	ACCESS:     667350  HIT:     263513  MISS:     403837
BTB BRANCH_RETURN	ACCESS:    4247972  HIT:    1106623  MISS:    3141349
BTB BRANCH_OTHER ACCESS:          0  HIT:          0  MISS:          0

L2C TOTAL     ACCESS:   17463289  HIT:   15775616  MISS:    1687673  HIT %:    90.3359  MISS %:    9.66412   MPKI: 8.43836
L2C LOAD      ACCESS:   12447836  HIT:   11216325  MISS:    1231511  HIT %:    90.1066  MISS %:    9.89337   MPKI: 6.15755
L2C DATA LOAD MPKI: 1.5005
L2C INSTRUCTION LOAD MPKI: 4.65705
L2C RFO       ACCESS:    1075179  HIT:     872560  MISS:     202619  HIT %:    81.1549  MISS %:    18.8451   MPKI: 1.01309
L2C PREFETCH  ACCESS:    1560348  HIT:    1401572  MISS:     158776  HIT %:    89.8243  MISS %:    10.1757   MPKI: 0.79388
AGUS PREFETCH L1 MISS: 0
L2C DATA PREFETCH MPKI: 0.79388
L2C INSTRUCTION PREFETCH MPKI: 0
L2C WRITEBACK ACCESS:    2020857  HIT:    1967487  MISS:      53370  HIT %:     97.359  MISS %:    2.64096   MPKI: 0.26685
L2C LOAD TRANSLATION ACCESS:       9061  HIT:       3176  MISS:       5885  HIT %:    35.0513  MISS %:    64.9487   MPKI: 0.029425
L2C TRANSLATION FROM L1D PREFETCHER ACCESS:     350008  HIT:     314496  MISS:      35512  HIT %:    89.8539  MISS %:    10.1461   MPKI: 0.17756
L2C PREFETCH  REQUESTED:          0  ISSUED:          0  USEFUL:      32188  USELESS:     161857
L2C USEFUL LOAD PREFETCHES:      32188 PREFETCH ISSUED TO LOWER LEVEL:     158776  ACCURACY: 20.2726
L2C TIMELY PREFETCHES:      32188 LATE PREFETCHES: 0 DROPPED PREFETCHES: 0
L2C PREFETCHES SAME FILL-ORIGIN LEVEL: 0 DIFFERENT FILL-ORIGIN LEVEL: 0
L2C AVERAGE MISS LATENCY: 35.7388 cycles
L2C RQ	ACCESS:   13882102	FORWARD:          0	MERGED:          0	TO_CACHE:   13882084
L2C WQ	ACCESS:    2020857	FORWARD:         35	MERGED:          0	TO_CACHE:    2020857
L2C PQ	ACCESS:    1560365	FORWARD:          0	MERGED:          0	TO_CACHE:    1560348

L2C Instructions Evicting Data 346863
L2C Translations Evicting Data 20840
L2C Data Evicting Data 326654
L2C Instructions Evicting Instructions 566243
L2C Translations Evicting Instructions 18657
L2C Data Evicting Instructions 315016
L2C Instructions Evicting Translations 18304
L2C Translations Evicting Translations 1900
L2C Data Evicting Translations 19826
L2C Dense regions hint from L2: 0
PSCL5 TOTAL     ACCESS:     264326  HIT:     264326  MISS:          0  HIT %:        100  MISS %:          0   MPKI: 0
PSCL5 LOAD TRANSLATION ACCESS:       8671  HIT:       8671  MISS:          0  HIT %:        100  MISS %:          0   MPKI: 0
PSCL5 TRANSLATION FROM L1D PREFETCHER ACCESS:     255655  HIT:     255655  MISS:          0  HIT %:        100  MISS %:          0   MPKI: 0
PSCL5 PREFETCH  REQUESTED:          0  ISSUED:          0  USEFUL:          0  USELESS:          0
PSCL5 USEFUL LOAD PREFETCHES:          0 PREFETCH ISSUED TO LOWER LEVEL:          0  ACCURACY: -nan
PSCL5 TIMELY PREFETCHES:          0 LATE PREFETCHES: 0 DROPPED PREFETCHES: 0
PSCL5 PREFETCHES SAME FILL-ORIGIN LEVEL: 0 DIFFERENT FILL-ORIGIN LEVEL: 0

PSCL4 TOTAL     ACCESS:     219352  HIT:     219342  MISS:         10  HIT %:    99.9954  MISS %: 0.00455888   MPKI: 5e-05
PSCL4 LOAD TRANSLATION ACCESS:       8464  HIT:       8454  MISS:         10  HIT %:    99.8819  MISS %:   0.118147   MPKI: 5e-05
PSCL4 TRANSLATION FROM L1D PREFETCHER ACCESS:     210888  HIT:     210888  MISS:          0  HIT %:        100  MISS %:          0   MPKI: 0
PSCL4 PREFETCH  REQUESTED:          0  ISSUED:          0  USEFUL:          0  USELESS:          0
PSCL4 USEFUL LOAD PREFETCHES:          0 PREFETCH ISSUED TO LOWER LEVEL:          0  ACCURACY: -nan
PSCL4 TIMELY PREFETCHES:          0 LATE PREFETCHES: 0 DROPPED PREFETCHES: 0
PSCL4 PREFETCHES SAME FILL-ORIGIN LEVEL: 0 DIFFERENT FILL-ORIGIN LEVEL: 0

PSCL3 TOTAL     ACCESS:     222621  HIT:     222611  MISS:         10  HIT %:    99.9955  MISS %: 0.00449194   MPKI: 5e-05
PSCL3 LOAD TRANSLATION ACCESS:       8552  HIT:       8542  MISS:         10  HIT %:    99.8831  MISS %:   0.116932   MPKI: 5e-05
PSCL3 TRANSLATION FROM L1D PREFETCHER ACCESS:     214069  HIT:     214069  MISS:          0  HIT %:        100  MISS %:          0   MPKI: 0
PSCL3 PREFETCH  REQUESTED:          0  ISSUED:          0  USEFUL:          0  USELESS:          0
PSCL3 USEFUL LOAD PREFETCHES:          0 PREFETCH ISSUED TO LOWER LEVEL:          0  ACCURACY: -nan
PSCL3 TIMELY PREFETCHES:          0 LATE PREFETCHES: 0 DROPPED PREFETCHES: 0
PSCL3 PREFETCHES SAME FILL-ORIGIN LEVEL: 0 DIFFERENT FILL-ORIGIN LEVEL: 0

PSCL2 TOTAL     ACCESS:      70735  HIT:      70343  MISS:        392  HIT %:    99.4458  MISS %:   0.554181   MPKI: 0.00196
PSCL2 LOAD TRANSLATION ACCESS:       8692  HIT:       8300  MISS:        392  HIT %:    95.4901  MISS %:    4.50989   MPKI: 0.00196
PSCL2 TRANSLATION FROM L1D PREFETCHER ACCESS:      62043  HIT:      62043  MISS:          0  HIT %:        100  MISS %:          0   MPKI: 0
PSCL2 PREFETCH  REQUESTED:          0  ISSUED:          0  USEFUL:          0  USELESS:          0
PSCL2 USEFUL LOAD PREFETCHES:          0 PREFETCH ISSUED TO LOWER LEVEL:          0  ACCURACY: -nan
PSCL2 TIMELY PREFETCHES:          0 LATE PREFETCHES: 0 DROPPED PREFETCHES: 0
PSCL2 PREFETCHES SAME FILL-ORIGIN LEVEL: 0 DIFFERENT FILL-ORIGIN LEVEL: 0

LLC TOTAL     ACCESS:    1909750  HIT:    1839988  MISS:      69762  HIT %:    96.3471  MISS %:    3.65294   MPKI: 0.34881
LLC LOAD      ACCESS:    1231511  HIT:    1206839  MISS:      24672  HIT %:    97.9966  MISS %:    2.00339   MPKI: 0.12336
LLC RFO       ACCESS:     202619  HIT:     169323  MISS:      33296  HIT %:    83.5672  MISS %:    16.4328   MPKI: 0.16648
LLC PREFETCH  ACCESS:     158776  HIT:     148942  MISS:       9834  HIT %:    93.8064  MISS %:    6.19363   MPKI: 0.04917
AGUS PREFETCH L1 MISS: 0
LLC WRITEBACK ACCESS:     275447  HIT:     274801  MISS:        646  HIT %:    99.7655  MISS %:   0.234528   MPKI: 0.00323
LLC LOAD TRANSLATION ACCESS:       5885  HIT:       5677  MISS:        208  HIT %:    96.4656  MISS %:    3.53441   MPKI: 0.00104
LLC TRANSLATION FROM L1D PREFETCHER ACCESS:      35512  HIT:      34406  MISS:       1106  HIT %:    96.8856  MISS %:    3.11444   MPKI: 0.00553
LLC PREFETCH  REQUESTED:          0  ISSUED:          0  USEFUL:       1845  USELESS:       8524
LLC USEFUL LOAD PREFETCHES:       1845 PREFETCH ISSUED TO LOWER LEVEL:       9834  ACCURACY: 18.7614
LLC TIMELY PREFETCHES:       1845 LATE PREFETCHES: 0 DROPPED PREFETCHES: 0
LLC PREFETCHES SAME FILL-ORIGIN LEVEL: 0 DIFFERENT FILL-ORIGIN LEVEL: 0
LLC AVERAGE MISS LATENCY: 161.626 cycles
LLC RQ	ACCESS:    1475527	FORWARD:          0	MERGED:          0	TO_CACHE:    1475527
LLC WQ	ACCESS:     275447	FORWARD:          0	MERGED:          0	TO_CACHE:     275447
LLC PQ	ACCESS:     158776	FORWARD:          0	MERGED:          0	TO_CACHE:     158776

LLC Dense regions hint to LLC: 0

RAW hits: 1394383
Loads Generated: 48830625
Loads sent to L1D: 47436242
Stores Generated: 26764752
Stores sent to L1D: 26764780
Major fault: 0 Minor fault: 2264
Allocated PAGES: 2264
Completed 

DRAM Statistics
 CHANNEL 0
 RQ ROW_BUFFER_HIT:      22922  ROW_BUFFER_MISS:      46182
 DBUS_CONGESTED:         42
 WQ ROW_BUFFER_HIT:       3730  ROW_BUFFER_MISS:      31987  FULL:          0

 AVG_CONGESTED_CYCLE: 5
 All warmup complete: 2
Channel 0 Bank busy for read cycles: 0
Channel 0 Bank busy for write cycles: 0
Channel 0
Rank 0
0banks busy for read cycles: 628192010
0banks busy for write cycles: 11150
1banks busy for read cycles: 2661360
1banks busy for write cycles: 1438753
2banks busy for read cycles: 452415
2banks busy for write cycles: 274016
3banks busy for read cycles: 221846
3banks busy for write cycles: 119033
4banks busy for read cycles: 170985
4banks busy for write cycles: 87724
5banks busy for read cycles: 129449
5banks busy for write cycles: 80777
6banks busy for read cycles: 136079
6banks busy for write cycles: 75538
7banks busy for read cycles: 101447
7banks busy for write cycles: 73578
8banks busy for read cycles: 127065
8banks busy for write cycles: 246887

CPU 0 Branch Prediction Accuracy: 99.8683% MPKI: 0.231785 Average ROB Occupancy at Mispredict: 32.2146
Branch types
NOT_BRANCH: 164806510 82.4033%
BRANCH_DIRECT_JUMP: 2009046 1.00452%
BRANCH_INDIRECT: 11800645 5.90032%
BRANCH_CONDITIONAL: 12887719 6.44386%
BRANCH_DIRECT_CALL: 3580653 1.79033%
BRANCH_INDIRECT_CALL: 667350 0.333675%
BRANCH_RETURN: 4247972 2.12399%
BRANCH_OTHER: 0 0%

DRAM PAGES: 1048576
Allocated PAGES: 2264
