
*** ChampSim Multicore Out-of-Order Simulator ***

Warmup Instructions: 50000000
Simulation Instructions: 200000000
Number of CPUs: 1
LLC sets: 2048
LLC ways: 16
Off-chip DRAM Size: 4096 MB Channels: 1 Width: 64-bit Data Rate: 6400 MT/s
CPU 0 runs traces/spec2k17/server_021.champsimtrace.xz
.xz
BTB has LRU replacement policy
ITLB has LRU replacement policy
DTLB has LRU replacement policy
STLB has LRU replacement policy
L1I has LRU replacement policy
L1D has LRU replacement policy
Initialize SRRIP state for L2C
Initialize DRRIP state for LLC
Heartbeat CPU 0 instructions: 10000003 cycles: 2945208 heartbeat IPC: 3.39535 cumulative IPC: 3.39535 (Simulation time: 0 hr 0 min 58 sec) 
Heartbeat CPU 0 instructions: 20000002 cycles: 5883468 heartbeat IPC: 3.40337 cumulative IPC: 3.39936 (Simulation time: 0 hr 1 min 40 sec) 
Heartbeat CPU 0 instructions: 30000000 cycles: 8828843 heartbeat IPC: 3.39515 cumulative IPC: 3.39795 (Simulation time: 0 hr 2 min 20 sec) 
Heartbeat CPU 0 instructions: 40000003 cycles: 11769069 heartbeat IPC: 3.4011 cumulative IPC: 3.39874 (Simulation time: 0 hr 3 min 3 sec) 
Heartbeat CPU 0 instructions: 50000000 cycles: 14713959 heartbeat IPC: 3.39571 cumulative IPC: 3.39813 (Simulation time: 0 hr 3 min 38 sec) 

Warmup complete CPU 0 instructions: 50000001 cycles: 14713960 (Simulation time: 0 hr 3 min 38 sec) 

Heartbeat CPU 0 instructions: 60000001 cycles: 35814529 heartbeat IPC: 0.473921 cumulative IPC: 0.473921 (Simulation time: 0 hr 4 min 30 sec) 
Heartbeat CPU 0 instructions: 70000001 cycles: 56503576 heartbeat IPC: 0.483348 cumulative IPC: 0.478588 (Simulation time: 0 hr 5 min 42 sec) 
Heartbeat CPU 0 instructions: 80000001 cycles: 76430873 heartbeat IPC: 0.501824 cumulative IPC: 0.48609 (Simulation time: 0 hr 6 min 56 sec) 
Heartbeat CPU 0 instructions: 90000002 cycles: 96196137 heartbeat IPC: 0.505938 cumulative IPC: 0.490905 (Simulation time: 0 hr 8 min 9 sec) 
Heartbeat CPU 0 instructions: 100000000 cycles: 115996215 heartbeat IPC: 0.505048 cumulative IPC: 0.49367 (Simulation time: 0 hr 9 min 2 sec) 
*** Reached end of trace for Core: 0 Repeating trace: traces/spec2k17/server_021.champsimtrace.xz
Heartbeat CPU 0 instructions: 110000000 cycles: 135873173 heartbeat IPC: 0.503095 cumulative IPC: 0.495216 (Simulation time: 0 hr 9 min 58 sec) 
Heartbeat CPU 0 instructions: 120000003 cycles: 155588889 heartbeat IPC: 0.50721 cumulative IPC: 0.496895 (Simulation time: 0 hr 11 min 9 sec) 
Heartbeat CPU 0 instructions: 130000000 cycles: 175242472 heartbeat IPC: 0.508813 cumulative IPC: 0.498354 (Simulation time: 0 hr 12 min 25 sec) 
Heartbeat CPU 0 instructions: 140000003 cycles: 194991724 heartbeat IPC: 0.506348 cumulative IPC: 0.49923 (Simulation time: 0 hr 13 min 40 sec) 
Heartbeat CPU 0 instructions: 150000003 cycles: 214691381 heartbeat IPC: 0.507623 cumulative IPC: 0.500056 (Simulation time: 0 hr 14 min 59 sec) 
Heartbeat CPU 0 instructions: 160000001 cycles: 234506655 heartbeat IPC: 0.504661 cumulative IPC: 0.500472 (Simulation time: 0 hr 16 min 17 sec) 
Heartbeat CPU 0 instructions: 170000000 cycles: 254232598 heartbeat IPC: 0.506947 cumulative IPC: 0.501005 (Simulation time: 0 hr 17 min 26 sec) 
Heartbeat CPU 0 instructions: 180000000 cycles: 273979392 heartbeat IPC: 0.506411 cumulative IPC: 0.501417 (Simulation time: 0 hr 18 min 38 sec) 
Heartbeat CPU 0 instructions: 190000000 cycles: 293714976 heartbeat IPC: 0.506699 cumulative IPC: 0.50179 (Simulation time: 0 hr 19 min 50 sec) 
Heartbeat CPU 0 instructions: 200000002 cycles: 313319124 heartbeat IPC: 0.510096 cumulative IPC: 0.502336 (Simulation time: 0 hr 21 min 4 sec) 
Heartbeat CPU 0 instructions: 210000000 cycles: 332941306 heartbeat IPC: 0.509627 cumulative IPC: 0.502785 (Simulation time: 0 hr 22 min 15 sec) 
*** Reached end of trace for Core: 0 Repeating trace: traces/spec2k17/server_021.champsimtrace.xz
Heartbeat CPU 0 instructions: 220000000 cycles: 352740427 heartbeat IPC: 0.505073 cumulative IPC: 0.502919 (Simulation time: 0 hr 23 min 24 sec) 
Heartbeat CPU 0 instructions: 230000002 cycles: 372399358 heartbeat IPC: 0.508675 cumulative IPC: 0.503236 (Simulation time: 0 hr 24 min 38 sec) 
Heartbeat CPU 0 instructions: 240000002 cycles: 392077376 heartbeat IPC: 0.508181 cumulative IPC: 0.503493 (Simulation time: 0 hr 25 min 50 sec) 
Heartbeat CPU 0 instructions: 250000000 cycles: 411778253 heartbeat IPC: 0.507591 cumulative IPC: 0.503697 (Simulation time: 0 hr 26 min 45 sec) 
Finished CPU 0 instructions: 200000003 cycles: 397064294 cumulative IPC: 0.503697 (Simulation time: 0 hr 26 min 45 sec) 

ChampSim completed all CPUs

Region of Interest Statistics

CPU 0 cumulative IPC: 0.503697 instructions: 200000003 cycles: 397064294
ITLB TOTAL     ACCESS:   33783618  HIT:   32249357  MISS:    1534261  HIT %:    95.4586  MISS %:    4.54143   MPKI: 7.6713
ITLB LOAD TRANSLATION ACCESS:   33783618  HIT:   32249357  MISS:    1534261  HIT %:    95.4586  MISS %:    4.54143   MPKI: 7.6713
ITLB PREFETCH  REQUESTED:          0  ISSUED:          0  USEFUL:          0  USELESS:          0
ITLB USEFUL LOAD PREFETCHES:          0 PREFETCH ISSUED TO LOWER LEVEL:          0  ACCURACY: -nan
ITLB TIMELY PREFETCHES:          0 LATE PREFETCHES: 0 DROPPED PREFETCHES: 0
ITLB PREFETCHES SAME FILL-ORIGIN LEVEL: 0 DIFFERENT FILL-ORIGIN LEVEL: 0
ITLB AVERAGE MISS LATENCY: 9.22024 cycles
ITLB RQ	ACCESS:   40648263	FORWARD:          0	MERGED:    6370613	TO_CACHE:   34277650

DTLB TOTAL     ACCESS:   39886783  HIT:   38388442  MISS:    1498341  HIT %:    96.2435  MISS %:    3.75648   MPKI: 7.4917
DTLB LOAD TRANSLATION ACCESS:   39886783  HIT:   38388442  MISS:    1498341  HIT %:    96.2435  MISS %:    3.75648   MPKI: 7.4917
DTLB PREFETCH  REQUESTED:          0  ISSUED:          0  USEFUL:          0  USELESS:          0
DTLB USEFUL LOAD PREFETCHES:          0 PREFETCH ISSUED TO LOWER LEVEL:          0  ACCURACY: -nan
DTLB TIMELY PREFETCHES:          0 LATE PREFETCHES: 0 DROPPED PREFETCHES: 0
DTLB PREFETCHES SAME FILL-ORIGIN LEVEL: 0 DIFFERENT FILL-ORIGIN LEVEL: 0
DTLB AVERAGE MISS LATENCY: 14.2939 cycles
DTLB RQ	ACCESS:   60957804	FORWARD:          0	MERGED:   20688524	TO_CACHE:   40269280

STLB TOTAL     ACCESS:    9415281  HIT:    9338544  MISS:      76737  HIT %:     99.185  MISS %:   0.815026   MPKI: 0.383685
STLB LOAD TRANSLATION ACCESS:    3032602  HIT:    2957643  MISS:      74959  HIT %:    97.5282  MISS %:    2.47177   MPKI: 0.374795
STLB TRANSLATION FROM L1D PREFETCHER ACCESS:    6382679  HIT:    6380901  MISS:       1778  HIT %:    99.9721  MISS %:  0.0278566   MPKI: 0.00889
STLB PREFETCH  REQUESTED:          0  ISSUED:          0  USEFUL:       1360  USELESS:        414
STLB USEFUL LOAD PREFETCHES:       1360 PREFETCH ISSUED TO LOWER LEVEL:          0  ACCURACY: inf
STLB TIMELY PREFETCHES:       1360 LATE PREFETCHES: 291 DROPPED PREFETCHES: 17642
STLB PREFETCHES SAME FILL-ORIGIN LEVEL: 0 DIFFERENT FILL-ORIGIN LEVEL: 0
STLB AVERAGE MISS LATENCY: 116.122 cycles
STLB RQ	ACCESS:   10497226	FORWARD:          0	MERGED:    1063579	TO_CACHE:    9433647

STLB Hit, L1D data hit: 0
STLB Hit, L2C data hit: 0
STLB Hit, LLC data hit: 0
STLB Hit, LLC data miss: 0
STLB STLB hints to L2: 0
L1D TOTAL     ACCESS:   55637215  HIT:   48737861  MISS:    6899354  HIT %:    87.5994  MISS %:    12.4006   MPKI: 34.4968
L1D LOAD      ACCESS:   26623979  HIT:   23661886  MISS:    2962093  HIT %:    88.8743  MISS %:    11.1257   MPKI: 14.8105
L1D RFO       ACCESS:   22487511  HIT:   18806367  MISS:    3681144  HIT %:    83.6303  MISS %:    16.3697   MPKI: 18.4057
L1D PREFETCH  ACCESS:    6525725  HIT:    6269608  MISS:     256117  HIT %:    96.0753  MISS %:    3.92473   MPKI: 1.28058
AGUS PREFETCH L1 MISS: 0
L1D PREFETCH  REQUESTED:   18521232  ISSUED:   18520109  USEFUL:     126677  USELESS:     129425
L1D USEFUL LOAD PREFETCHES:     126677 PREFETCH ISSUED TO LOWER LEVEL:     426154  ACCURACY: 29.7256
L1D TIMELY PREFETCHES:     126677 LATE PREFETCHES: 169844 DROPPED PREFETCHES: 18254
L1D PREFETCHES SAME FILL-ORIGIN LEVEL: 426154 DIFFERENT FILL-ORIGIN LEVEL: 0
L1D AVERAGE MISS LATENCY: 5.53888e+06 cycles
L1D RQ	ACCESS:   45160389	FORWARD:          0	MERGED:   17825338	TO_CACHE:   27054548
L1D WQ	ACCESS:   34105995	FORWARD:     316380	MERGED:     202739	TO_CACHE:   33903256
L1D PQ	ACCESS:   11055485	FORWARD:          0	MERGED:    3554984	TO_CACHE:    7464624

L1D UNIQUE REGIONS ACCESSED: 0
L1D REGIONS CONFLICTS: 0
L1D Cross Page Prefetch Requests: 4314751
L1D Same Page Prefetch Requests: 8467976
L1D ROI Sum of L1D PQ occupancy: 105889986
L1D PREFETCHES PUSHED FROM L2C: 0
L1I TOTAL     ACCESS:   37997663  HIT:   28917435  MISS:    9080228  HIT %:    76.1032  MISS %:    23.8968   MPKI: 45.4011
L1I LOAD      ACCESS:   37997663  HIT:   28917435  MISS:    9080228  HIT %:    76.1032  MISS %:    23.8968   MPKI: 45.4011
L1I PREFETCH  REQUESTED:          0  ISSUED:          0  USEFUL:          0  USELESS:          0
L1I USEFUL LOAD PREFETCHES:          0 PREFETCH ISSUED TO LOWER LEVEL:          0  ACCURACY: -nan
L1I TIMELY PREFETCHES:          0 LATE PREFETCHES: 0 DROPPED PREFETCHES: 0
L1I PREFETCHES SAME FILL-ORIGIN LEVEL: 0 DIFFERENT FILL-ORIGIN LEVEL: 0
L1I AVERAGE MISS LATENCY: 16.5511 cycles
L1I RQ	ACCESS:   59022242	FORWARD:          0	MERGED:   18373979	TO_CACHE:   40648263

BTB TOTAL     ACCESS:   25736961  HIT:   24179944  MISS:    1557017  HIT %:    93.9503  MISS %:    6.04973   MPKI: 7.78508
BTB BRANCH_DIRECT_JUMP	ACCESS:    1656182  HIT:    1646075  MISS:      10107
BTB BRANCH_INDIRECT	ACCESS:    9984753  HIT:    9460939  MISS:     523814
BTB BRANCH_CONDITIONAL	ACCESS:    7260252  HIT:    7246132  MISS:      14120
BTB BRANCH_DIRECT_CALL	ACCESS:    2821015  HIT:    2786715  MISS:      34300
BTB BRANCH_INDIRECT_CALL	ACCESS:     596869  HIT:     485589  MISS:     111280
BTB BRANCH_RETURN	ACCESS:    3417890  HIT:    2554494  MISS:     863396
BTB BRANCH_OTHER ACCESS:          0  HIT:          0  MISS:          0

L2C TOTAL     ACCESS:   20428302  HIT:   13788923  MISS:    6639379  HIT %:    67.4991  MISS %:    32.5009   MPKI: 33.1969
L2C LOAD      ACCESS:   11872417  HIT:    9221856  MISS:    2650561  HIT %:    77.6746  MISS %:    22.3254   MPKI: 13.2528
L2C DATA LOAD MPKI: 10.4774
L2C INSTRUCTION LOAD MPKI: 2.77544
L2C RFO       ACCESS:    3680946  HIT:     170631  MISS:    3510315  HIT %:    4.63552  MISS %:    95.3645   MPKI: 17.5516
L2C PREFETCH  ACCESS:     426136  HIT:     123993  MISS:     302143  HIT %:     29.097  MISS %:     70.903   MPKI: 1.51071
AGUS PREFETCH L1 MISS: 0
L2C DATA PREFETCH MPKI: 1.51071
L2C INSTRUCTION PREFETCH MPKI: 0
L2C WRITEBACK ACCESS:    4338785  HIT:    4209492  MISS:     129293  HIT %:    97.0201  MISS %:    2.97994   MPKI: 0.646465
L2C LOAD TRANSLATION ACCESS:      80906  HIT:      46277  MISS:      34629  HIT %:    57.1985  MISS %:    42.8015   MPKI: 0.173145
L2C TRANSLATION FROM L1D PREFETCHER ACCESS:      29112  HIT:      16674  MISS:      12438  HIT %:    57.2754  MISS %:    42.7246   MPKI: 0.06219
L2C PREFETCH  REQUESTED:          0  ISSUED:          0  USEFUL:      18669  USELESS:     295971
L2C USEFUL LOAD PREFETCHES:      18669 PREFETCH ISSUED TO LOWER LEVEL:     302143  ACCURACY: 6.17886
L2C TIMELY PREFETCHES:      18669 LATE PREFETCHES: 0 DROPPED PREFETCHES: 0
L2C PREFETCHES SAME FILL-ORIGIN LEVEL: 0 DIFFERENT FILL-ORIGIN LEVEL: 0
L2C AVERAGE MISS LATENCY: 161.579 cycles
L2C RQ	ACCESS:   15663446	FORWARD:          0	MERGED:          0	TO_CACHE:   15663381
L2C WQ	ACCESS:    4338785	FORWARD:         83	MERGED:          0	TO_CACHE:    4338785
L2C PQ	ACCESS:     426154	FORWARD:          0	MERGED:          0	TO_CACHE:     426136

L2C Instructions Evicting Data 515722
L2C Translations Evicting Data 43073
L2C Data Evicting Data 5361784
L2C Instructions Evicting Instructions 35912
L2C Translations Evicting Instructions 3605
L2C Data Evicting Instructions 503770
L2C Instructions Evicting Translations 3455
L2C Translations Evicting Translations 389
L2C Data Evicting Translations 42376
L2C Dense regions hint from L2: 0
PSCL5 TOTAL     ACCESS:      93906  HIT:      93906  MISS:          0  HIT %:        100  MISS %:          0   MPKI: 0
PSCL5 LOAD TRANSLATION ACCESS:      74668  HIT:      74668  MISS:          0  HIT %:        100  MISS %:          0   MPKI: 0
PSCL5 TRANSLATION FROM L1D PREFETCHER ACCESS:      19238  HIT:      19238  MISS:          0  HIT %:        100  MISS %:          0   MPKI: 0
PSCL5 PREFETCH  REQUESTED:          0  ISSUED:          0  USEFUL:          0  USELESS:          0
PSCL5 USEFUL LOAD PREFETCHES:          0 PREFETCH ISSUED TO LOWER LEVEL:          0  ACCURACY: -nan
PSCL5 TIMELY PREFETCHES:          0 LATE PREFETCHES: 0 DROPPED PREFETCHES: 0
PSCL5 PREFETCHES SAME FILL-ORIGIN LEVEL: 0 DIFFERENT FILL-ORIGIN LEVEL: 0

PSCL4 TOTAL     ACCESS:      89725  HIT:      89550  MISS:        175  HIT %:     99.805  MISS %:    0.19504   MPKI: 0.000875
PSCL4 LOAD TRANSLATION ACCESS:      72394  HIT:      72219  MISS:        175  HIT %:    99.7583  MISS %:   0.241733   MPKI: 0.000875
PSCL4 TRANSLATION FROM L1D PREFETCHER ACCESS:      17331  HIT:      17331  MISS:          0  HIT %:        100  MISS %:          0   MPKI: 0
PSCL4 PREFETCH  REQUESTED:          0  ISSUED:          0  USEFUL:          0  USELESS:          0
PSCL4 USEFUL LOAD PREFETCHES:          0 PREFETCH ISSUED TO LOWER LEVEL:          0  ACCURACY: -nan
PSCL4 TIMELY PREFETCHES:          0 LATE PREFETCHES: 0 DROPPED PREFETCHES: 0
PSCL4 PREFETCHES SAME FILL-ORIGIN LEVEL: 0 DIFFERENT FILL-ORIGIN LEVEL: 0

PSCL3 TOTAL     ACCESS:      91035  HIT:      90860  MISS:        175  HIT %:    99.8078  MISS %:   0.192234   MPKI: 0.000875
PSCL3 LOAD TRANSLATION ACCESS:      73400  HIT:      73225  MISS:        175  HIT %:    99.7616  MISS %:    0.23842   MPKI: 0.000875
PSCL3 TRANSLATION FROM L1D PREFETCHER ACCESS:      17635  HIT:      17635  MISS:          0  HIT %:        100  MISS %:          0   MPKI: 0
PSCL3 PREFETCH  REQUESTED:          0  ISSUED:          0  USEFUL:          0  USELESS:          0
PSCL3 USEFUL LOAD PREFETCHES:          0 PREFETCH ISSUED TO LOWER LEVEL:          0  ACCURACY: -nan
PSCL3 TIMELY PREFETCHES:          0 LATE PREFETCHES: 0 DROPPED PREFETCHES: 0
PSCL3 PREFETCHES SAME FILL-ORIGIN LEVEL: 0 DIFFERENT FILL-ORIGIN LEVEL: 0

PSCL2 TOTAL     ACCESS:      84444  HIT:      78164  MISS:       6280  HIT %:    92.5631  MISS %:    7.43688   MPKI: 0.0314
PSCL2 LOAD TRANSLATION ACCESS:      75031  HIT:      68751  MISS:       6280  HIT %:    91.6301  MISS %:    8.36987   MPKI: 0.0314
PSCL2 TRANSLATION FROM L1D PREFETCHER ACCESS:       9413  HIT:       9413  MISS:          0  HIT %:        100  MISS %:          0   MPKI: 0
PSCL2 PREFETCH  REQUESTED:          0  ISSUED:          0  USEFUL:          0  USELESS:          0
PSCL2 USEFUL LOAD PREFETCHES:          0 PREFETCH ISSUED TO LOWER LEVEL:          0  ACCURACY: -nan
PSCL2 TIMELY PREFETCHES:          0 LATE PREFETCHES: 0 DROPPED PREFETCHES: 0
PSCL2 PREFETCHES SAME FILL-ORIGIN LEVEL: 0 DIFFERENT FILL-ORIGIN LEVEL: 0

LLC TOTAL     ACCESS:   10518245  HIT:    4391227  MISS:    6127018  HIT %:    41.7487  MISS %:    58.2513   MPKI: 30.6351
LLC LOAD      ACCESS:    2650561  HIT:    1560362  MISS:    1090199  HIT %:    58.8691  MISS %:    41.1309   MPKI: 5.45099
LLC RFO       ACCESS:    3510293  HIT:     954405  MISS:    2555888  HIT %:    27.1888  MISS %:    72.8112   MPKI: 12.7794
LLC PREFETCH  ACCESS:     302143  HIT:      87138  MISS:     215005  HIT %:      28.84  MISS %:      71.16   MPKI: 1.07502
AGUS PREFETCH L1 MISS: 0
LLC WRITEBACK ACCESS:    4008181  HIT:    1768739  MISS:    2239442  HIT %:    44.1282  MISS %:    55.8718   MPKI: 11.1972
LLC LOAD TRANSLATION ACCESS:      34629  HIT:      13065  MISS:      21564  HIT %:    37.7285  MISS %:    62.2715   MPKI: 0.10782
LLC TRANSLATION FROM L1D PREFETCHER ACCESS:      12438  HIT:       7518  MISS:       4920  HIT %:    60.4438  MISS %:    39.5562   MPKI: 0.0246
LLC PREFETCH  REQUESTED:          0  ISSUED:          0  USEFUL:       1950  USELESS:     220360
LLC USEFUL LOAD PREFETCHES:       1950 PREFETCH ISSUED TO LOWER LEVEL:     215005  ACCURACY: 0.906956
LLC TIMELY PREFETCHES:       1950 LATE PREFETCHES: 0 DROPPED PREFETCHES: 0
LLC PREFETCHES SAME FILL-ORIGIN LEVEL: 0 DIFFERENT FILL-ORIGIN LEVEL: 0
LLC AVERAGE MISS LATENCY: 142.78 cycles
LLC RQ	ACCESS:    6207942	FORWARD:          0	MERGED:          0	TO_CACHE:    6207920
LLC WQ	ACCESS:    4008182	FORWARD:         22	MERGED:          0	TO_CACHE:    4008182
LLC PQ	ACCESS:     302143	FORWARD:          0	MERGED:          0	TO_CACHE:     302143

LLC Dense regions hint to LLC: 0

RAW hits: 2510108
Loads Generated: 47670499
Loads sent to L1D: 45160389
Stores Generated: 34105965
Stores sent to L1D: 34105995
Major fault: 0 Minor fault: 22424
Allocated PAGES: 22424
Completed 

DRAM Statistics
 CHANNEL 0
 RQ ROW_BUFFER_HIT:    1760060  ROW_BUFFER_MISS:    2127127
 DBUS_CONGESTED:       1700
 WQ ROW_BUFFER_HIT:     591227  ROW_BUFFER_MISS:    2040040  FULL:      51875

 AVG_CONGESTED_CYCLE: 3
 All warmup complete: 2
Channel 0 Bank busy for read cycles: 0
Channel 0 Bank busy for write cycles: 0
Channel 0
Rank 0
0banks busy for read cycles: 174064322
0banks busy for write cycles: 263167
1banks busy for read cycles: 36456780
1banks busy for write cycles: 37086877
2banks busy for read cycles: 14670552
2banks busy for write cycles: 12864414
3banks busy for read cycles: 16520937
3banks busy for write cycles: 5859803
4banks busy for read cycles: 7137486
4banks busy for write cycles: 3821602
5banks busy for read cycles: 5621054
5banks busy for write cycles: 3230194
6banks busy for read cycles: 8766683
6banks busy for write cycles: 3269298
7banks busy for read cycles: 8882880
7banks busy for write cycles: 5887220
8banks busy for read cycles: 15892396
8banks busy for write cycles: 36768630

CPU 0 Branch Prediction Accuracy: 99.9423% MPKI: 0.088365 Average ROB Occupancy at Mispredict: 118.914
Branch types
NOT_BRANCH: 169393846 84.6969%
BRANCH_DIRECT_JUMP: 1656182 0.828091%
BRANCH_INDIRECT: 9984753 4.99238%
BRANCH_CONDITIONAL: 12129382 6.06469%
BRANCH_DIRECT_CALL: 2821015 1.41051%
BRANCH_INDIRECT_CALL: 596869 0.298434%
BRANCH_RETURN: 3417890 1.70894%
BRANCH_OTHER: 0 0%

DRAM PAGES: 1048576
Allocated PAGES: 22424
