
*** ChampSim Multicore Out-of-Order Simulator ***

Warmup Instructions: 50000000
Simulation Instructions: 200000000
Number of CPUs: 1
LLC sets: 2048
LLC ways: 16
Off-chip DRAM Size: 4096 MB Channels: 1 Width: 64-bit Data Rate: 6400 MT/s
CPU 0 runs traces/spec2k17/server_038.champsimtrace.xz
.xz
BTB has LRU replacement policy
ITLB has LRU replacement policy
DTLB has LRU replacement policy
STLB has LRU replacement policy
L1I has LRU replacement policy
L1D has LRU replacement policy
Initialize SRRIP state for L2C
Initialize DRRIP state for LLC
Heartbeat CPU 0 instructions: 10000000 cycles: 2795532 heartbeat IPC: 3.57714 cumulative IPC: 3.57714 (Simulation time: 0 hr 0 min 39 sec) 
Heartbeat CPU 0 instructions: 20000002 cycles: 5595272 heartbeat IPC: 3.57176 cumulative IPC: 3.57445 (Simulation time: 0 hr 1 min 6 sec) 
Heartbeat CPU 0 instructions: 30000003 cycles: 8396133 heartbeat IPC: 3.57033 cumulative IPC: 3.57307 (Simulation time: 0 hr 1 min 31 sec) 
Heartbeat CPU 0 instructions: 40000001 cycles: 11198269 heartbeat IPC: 3.56871 cumulative IPC: 3.57198 (Simulation time: 0 hr 1 min 57 sec) 
Heartbeat CPU 0 instructions: 50000001 cycles: 14001255 heartbeat IPC: 3.56762 cumulative IPC: 3.57111 (Simulation time: 0 hr 2 min 23 sec) 

Warmup complete CPU 0 instructions: 50000001 cycles: 14001255 (Simulation time: 0 hr 2 min 23 sec) 

Heartbeat CPU 0 instructions: 60000000 cycles: 34158679 heartbeat IPC: 0.496095 cumulative IPC: 0.496095 (Simulation time: 0 hr 3 min 5 sec) 
Heartbeat CPU 0 instructions: 70000000 cycles: 54125338 heartbeat IPC: 0.500835 cumulative IPC: 0.498454 (Simulation time: 0 hr 3 min 45 sec) 
Heartbeat CPU 0 instructions: 80000000 cycles: 74086213 heartbeat IPC: 0.50098 cumulative IPC: 0.499293 (Simulation time: 0 hr 4 min 30 sec) 
Heartbeat CPU 0 instructions: 90000001 cycles: 94076463 heartbeat IPC: 0.500244 cumulative IPC: 0.49953 (Simulation time: 0 hr 5 min 12 sec) 
Heartbeat CPU 0 instructions: 100000002 cycles: 114052758 heartbeat IPC: 0.500593 cumulative IPC: 0.499743 (Simulation time: 0 hr 6 min 9 sec) 
*** Reached end of trace for Core: 0 Repeating trace: traces/spec2k17/server_038.champsimtrace.xz
Heartbeat CPU 0 instructions: 110000000 cycles: 134153416 heartbeat IPC: 0.497496 cumulative IPC: 0.499367 (Simulation time: 0 hr 6 min 56 sec) 
Heartbeat CPU 0 instructions: 120000003 cycles: 154193843 heartbeat IPC: 0.498992 cumulative IPC: 0.499313 (Simulation time: 0 hr 7 min 33 sec) 
Heartbeat CPU 0 instructions: 130000001 cycles: 174167675 heartbeat IPC: 0.500655 cumulative IPC: 0.49948 (Simulation time: 0 hr 8 min 25 sec) 
Heartbeat CPU 0 instructions: 140000001 cycles: 194149448 heartbeat IPC: 0.500456 cumulative IPC: 0.499589 (Simulation time: 0 hr 9 min 20 sec) 
Heartbeat CPU 0 instructions: 150000002 cycles: 214132727 heartbeat IPC: 0.500418 cumulative IPC: 0.499672 (Simulation time: 0 hr 9 min 59 sec) 
Heartbeat CPU 0 instructions: 160000000 cycles: 234166433 heartbeat IPC: 0.499159 cumulative IPC: 0.499625 (Simulation time: 0 hr 10 min 45 sec) 
Heartbeat CPU 0 instructions: 170000002 cycles: 254093963 heartbeat IPC: 0.501818 cumulative IPC: 0.499807 (Simulation time: 0 hr 11 min 22 sec) 
Heartbeat CPU 0 instructions: 180000000 cycles: 274011572 heartbeat IPC: 0.502068 cumulative IPC: 0.49998 (Simulation time: 0 hr 11 min 59 sec) 
Heartbeat CPU 0 instructions: 190000002 cycles: 293935961 heartbeat IPC: 0.501898 cumulative IPC: 0.500117 (Simulation time: 0 hr 12 min 36 sec) 
Heartbeat CPU 0 instructions: 200000001 cycles: 313871393 heartbeat IPC: 0.501619 cumulative IPC: 0.500217 (Simulation time: 0 hr 13 min 14 sec) 
*** Reached end of trace for Core: 0 Repeating trace: traces/spec2k17/server_038.champsimtrace.xz
Heartbeat CPU 0 instructions: 210000003 cycles: 333942103 heartbeat IPC: 0.498239 cumulative IPC: 0.500092 (Simulation time: 0 hr 14 min 9 sec) 
Heartbeat CPU 0 instructions: 220000000 cycles: 353995110 heartbeat IPC: 0.498678 cumulative IPC: 0.500009 (Simulation time: 0 hr 15 min 16 sec) 
Heartbeat CPU 0 instructions: 230000003 cycles: 373929826 heartbeat IPC: 0.501638 cumulative IPC: 0.500099 (Simulation time: 0 hr 16 min 16 sec) 
Heartbeat CPU 0 instructions: 240000001 cycles: 393938932 heartbeat IPC: 0.499772 cumulative IPC: 0.500082 (Simulation time: 0 hr 17 min 10 sec) 
Heartbeat CPU 0 instructions: 250000001 cycles: 413926871 heartbeat IPC: 0.500302 cumulative IPC: 0.500093 (Simulation time: 0 hr 17 min 59 sec) 
Finished CPU 0 instructions: 200000000 cycles: 399925616 cumulative IPC: 0.500093 (Simulation time: 0 hr 17 min 59 sec) 

ChampSim completed all CPUs

Region of Interest Statistics

CPU 0 cumulative IPC: 0.500093 instructions: 200000000 cycles: 399925616
ITLB TOTAL     ACCESS:   35176060  HIT:   32683349  MISS:    2492711  HIT %:    92.9136  MISS %:    7.08638   MPKI: 12.4636
ITLB LOAD TRANSLATION ACCESS:   35176060  HIT:   32683349  MISS:    2492711  HIT %:    92.9136  MISS %:    7.08638   MPKI: 12.4636
ITLB PREFETCH  REQUESTED:          0  ISSUED:          0  USEFUL:          0  USELESS:          0
ITLB USEFUL LOAD PREFETCHES:          0 PREFETCH ISSUED TO LOWER LEVEL:          0  ACCURACY: -nan
ITLB TIMELY PREFETCHES:          0 LATE PREFETCHES: 0 DROPPED PREFETCHES: 0
ITLB PREFETCHES SAME FILL-ORIGIN LEVEL: 0 DIFFERENT FILL-ORIGIN LEVEL: 0
ITLB AVERAGE MISS LATENCY: 9.01696 cycles
ITLB RQ	ACCESS:   41440508	FORWARD:          0	MERGED:    5453293	TO_CACHE:   35987215

DTLB TOTAL     ACCESS:   40160182  HIT:   38163612  MISS:    1996570  HIT %:    95.0285  MISS %:    4.97152   MPKI: 9.98285
DTLB LOAD TRANSLATION ACCESS:   40160182  HIT:   38163612  MISS:    1996570  HIT %:    95.0285  MISS %:    4.97152   MPKI: 9.98285
DTLB PREFETCH  REQUESTED:          0  ISSUED:          0  USEFUL:          0  USELESS:          0
DTLB USEFUL LOAD PREFETCHES:          0 PREFETCH ISSUED TO LOWER LEVEL:          0  ACCURACY: -nan
DTLB TIMELY PREFETCHES:          0 LATE PREFETCHES: 0 DROPPED PREFETCHES: 0
DTLB PREFETCHES SAME FILL-ORIGIN LEVEL: 0 DIFFERENT FILL-ORIGIN LEVEL: 0
DTLB AVERAGE MISS LATENCY: 9.03589 cycles
DTLB RQ	ACCESS:   55977360	FORWARD:          0	MERGED:   15676901	TO_CACHE:   40300459

STLB TOTAL     ACCESS:   12811851  HIT:   12788782  MISS:      23069  HIT %:    99.8199  MISS %:    0.18006   MPKI: 0.115345
STLB LOAD TRANSLATION ACCESS:    4489281  HIT:    4466440  MISS:      22841  HIT %:    99.4912  MISS %:    0.50879   MPKI: 0.114205
STLB TRANSLATION FROM L1D PREFETCHER ACCESS:    8322570  HIT:    8322342  MISS:        228  HIT %:    99.9973  MISS %: 0.00273954   MPKI: 0.00114
STLB PREFETCH  REQUESTED:          0  ISSUED:          0  USEFUL:        160  USELESS:         56
STLB USEFUL LOAD PREFETCHES:        160 PREFETCH ISSUED TO LOWER LEVEL:          0  ACCURACY: inf
STLB TIMELY PREFETCHES:        160 LATE PREFETCHES: 11 DROPPED PREFETCHES: 75582
STLB PREFETCHES SAME FILL-ORIGIN LEVEL: 0 DIFFERENT FILL-ORIGIN LEVEL: 0
STLB AVERAGE MISS LATENCY: 57.2151 cycles
STLB RQ	ACCESS:   14784930	FORWARD:          0	MERGED:    1897484	TO_CACHE:   12887446

STLB Hit, L1D data hit: 0
STLB Hit, L2C data hit: 0
STLB Hit, LLC data hit: 0
STLB Hit, LLC data miss: 0
STLB STLB hints to L2: 0
L1D TOTAL     ACCESS:   65559160  HIT:   63670033  MISS:    1889127  HIT %:    97.1184  MISS %:    2.88156   MPKI: 9.44563
L1D LOAD      ACCESS:   31364253  HIT:   29973149  MISS:    1391104  HIT %:    95.5647  MISS %:    4.43532   MPKI: 6.95552
L1D RFO       ACCESS:   24205394  HIT:   23947799  MISS:     257595  HIT %:    98.9358  MISS %:     1.0642   MPKI: 1.28798
L1D PREFETCH  ACCESS:    9989513  HIT:    9749085  MISS:     240428  HIT %:    97.5932  MISS %:     2.4068   MPKI: 1.20214
AGUS PREFETCH L1 MISS: 0
L1D PREFETCH  REQUESTED:   23808323  ISSUED:   23808286  USEFUL:      94620  USELESS:     145750
L1D USEFUL LOAD PREFETCHES:      94620 PREFETCH ISSUED TO LOWER LEVEL:     325315  ACCURACY: 29.0857
L1D TIMELY PREFETCHES:      94620 LATE PREFETCHES: 84698 DROPPED PREFETCHES: 76520
L1D PREFETCHES SAME FILL-ORIGIN LEVEL: 325315 DIFFERENT FILL-ORIGIN LEVEL: 0
L1D AVERAGE MISS LATENCY: 1.16776e+07 cycles
L1D RQ	ACCESS:   45997720	FORWARD:          0	MERGED:   14277045	TO_CACHE:   31466763
L1D WQ	ACCESS:   24697059	FORWARD:     281989	MERGED:     186462	TO_CACHE:   24510597
L1D PQ	ACCESS:   13512637	FORWARD:          0	MERGED:    3188911	TO_CACHE:   10295649

L1D UNIQUE REGIONS ACCESSED: 0
L1D REGIONS CONFLICTS: 0
L1D Cross Page Prefetch Requests: 8110059
L1D Same Page Prefetch Requests: 7714094
L1D ROI Sum of L1D PQ occupancy: 139503151
L1D PREFETCHES PUSHED FROM L2C: 0
L1I TOTAL     ACCESS:   37495507  HIT:   22057015  MISS:   15438492  HIT %:    58.8258  MISS %:    41.1742   MPKI: 77.1925
L1I LOAD      ACCESS:   37495507  HIT:   22057015  MISS:   15438492  HIT %:    58.8258  MISS %:    41.1742   MPKI: 77.1925
L1I PREFETCH  REQUESTED:          0  ISSUED:          0  USEFUL:          0  USELESS:          0
L1I USEFUL LOAD PREFETCHES:          0 PREFETCH ISSUED TO LOWER LEVEL:          0  ACCURACY: -nan
L1I TIMELY PREFETCHES:          0 LATE PREFETCHES: 0 DROPPED PREFETCHES: 0
L1I PREFETCHES SAME FILL-ORIGIN LEVEL: 0 DIFFERENT FILL-ORIGIN LEVEL: 0
L1I AVERAGE MISS LATENCY: 14.1307 cycles
L1I RQ	ACCESS:   62469068	FORWARD:          0	MERGED:   21028560	TO_CACHE:   41440508

BTB TOTAL     ACCESS:   28064304  HIT:   24482603  MISS:    3581701  HIT %:    87.2375  MISS %:    12.7625   MPKI: 17.9085
BTB BRANCH_DIRECT_JUMP	ACCESS:    2068715  HIT:    1958904  MISS:     109811
BTB BRANCH_INDIRECT	ACCESS:   12589489  HIT:   11340070  MISS:    1249419
BTB BRANCH_CONDITIONAL	ACCESS:    3946651  HIT:    3830860  MISS:     115791
BTB BRANCH_DIRECT_CALL	ACCESS:    3834256  HIT:    3580645  MISS:     253611
BTB BRANCH_INDIRECT_CALL	ACCESS:     895479  HIT:     719752  MISS:     175727
BTB BRANCH_RETURN	ACCESS:    4729714  HIT:    3052372  MISS:    1677342
BTB BRANCH_OTHER ACCESS:          0  HIT:          0  MISS:          0

L2C TOTAL     ACCESS:   18389042  HIT:   17750809  MISS:     638233  HIT %:    96.5293  MISS %:    3.47072   MPKI: 3.19116
L2C LOAD      ACCESS:   16744856  HIT:   16315962  MISS:     428894  HIT %:    97.4387  MISS %:    2.56135   MPKI: 2.14447
L2C DATA LOAD MPKI: 2.02519
L2C INSTRUCTION LOAD MPKI: 0.11928
L2C RFO       ACCESS:     257406  HIT:     156252  MISS:     101154  HIT %:    60.7025  MISS %:    39.2975   MPKI: 0.50577
L2C PREFETCH  ACCESS:     325309  HIT:     257804  MISS:      67505  HIT %:     79.249  MISS %:     20.751   MPKI: 0.337525
AGUS PREFETCH L1 MISS: 0
L2C DATA PREFETCH MPKI: 0.337525
L2C INSTRUCTION PREFETCH MPKI: 0
L2C WRITEBACK ACCESS:     904069  HIT:     889676  MISS:      14393  HIT %:     98.408  MISS %:    1.59202   MPKI: 0.071965
L2C LOAD TRANSLATION ACCESS:      31537  HIT:      12352  MISS:      19185  HIT %:    39.1667  MISS %:    60.8333   MPKI: 0.095925
L2C TRANSLATION FROM L1D PREFETCHER ACCESS:     125865  HIT:     118763  MISS:       7102  HIT %:    94.3574  MISS %:    5.64255   MPKI: 0.03551
L2C PREFETCH  REQUESTED:          0  ISSUED:          0  USEFUL:       7243  USELESS:      66860
L2C USEFUL LOAD PREFETCHES:       7243 PREFETCH ISSUED TO LOWER LEVEL:      67505  ACCURACY: 10.7296
L2C TIMELY PREFETCHES:       7243 LATE PREFETCHES: 0 DROPPED PREFETCHES: 0
L2C PREFETCHES SAME FILL-ORIGIN LEVEL: 0 DIFFERENT FILL-ORIGIN LEVEL: 0
L2C AVERAGE MISS LATENCY: 49.8501 cycles
L2C RQ	ACCESS:   17159706	FORWARD:          0	MERGED:          0	TO_CACHE:   17159664
L2C WQ	ACCESS:     904069	FORWARD:         48	MERGED:          0	TO_CACHE:     904069
L2C PQ	ACCESS:     325315	FORWARD:          0	MERGED:          0	TO_CACHE:     325309

L2C Instructions Evicting Data 21268
L2C Translations Evicting Data 23902
L2C Data Evicting Data 529720
L2C Instructions Evicting Instructions 1507
L2C Translations Evicting Instructions 1056
L2C Data Evicting Instructions 20611
L2C Instructions Evicting Translations 1081
L2C Translations Evicting Translations 1329
L2C Data Evicting Translations 23366
L2C Dense regions hint from L2: 0
PSCL5 TOTAL     ACCESS:      97447  HIT:      97447  MISS:          0  HIT %:        100  MISS %:          0   MPKI: 0
PSCL5 LOAD TRANSLATION ACCESS:      22831  HIT:      22831  MISS:          0  HIT %:        100  MISS %:          0   MPKI: 0
PSCL5 TRANSLATION FROM L1D PREFETCHER ACCESS:      74616  HIT:      74616  MISS:          0  HIT %:        100  MISS %:          0   MPKI: 0
PSCL5 PREFETCH  REQUESTED:          0  ISSUED:          0  USEFUL:          0  USELESS:          0
PSCL5 USEFUL LOAD PREFETCHES:          0 PREFETCH ISSUED TO LOWER LEVEL:          0  ACCURACY: -nan
PSCL5 TIMELY PREFETCHES:          0 LATE PREFETCHES: 0 DROPPED PREFETCHES: 0
PSCL5 PREFETCHES SAME FILL-ORIGIN LEVEL: 0 DIFFERENT FILL-ORIGIN LEVEL: 0

PSCL4 TOTAL     ACCESS:      93462  HIT:      93452  MISS:         10  HIT %:    99.9893  MISS %:  0.0106995   MPKI: 5e-05
PSCL4 LOAD TRANSLATION ACCESS:      22442  HIT:      22432  MISS:         10  HIT %:    99.9554  MISS %:  0.0445593   MPKI: 5e-05
PSCL4 TRANSLATION FROM L1D PREFETCHER ACCESS:      71020  HIT:      71020  MISS:          0  HIT %:        100  MISS %:          0   MPKI: 0
PSCL4 PREFETCH  REQUESTED:          0  ISSUED:          0  USEFUL:          0  USELESS:          0
PSCL4 USEFUL LOAD PREFETCHES:          0 PREFETCH ISSUED TO LOWER LEVEL:          0  ACCURACY: -nan
PSCL4 TIMELY PREFETCHES:          0 LATE PREFETCHES: 0 DROPPED PREFETCHES: 0
PSCL4 PREFETCHES SAME FILL-ORIGIN LEVEL: 0 DIFFERENT FILL-ORIGIN LEVEL: 0

PSCL3 TOTAL     ACCESS:      93324  HIT:      93240  MISS:         84  HIT %:      99.91  MISS %:   0.090009   MPKI: 0.00042
PSCL3 LOAD TRANSLATION ACCESS:      22754  HIT:      22670  MISS:         84  HIT %:    99.6308  MISS %:   0.369166   MPKI: 0.00042
PSCL3 TRANSLATION FROM L1D PREFETCHER ACCESS:      70570  HIT:      70570  MISS:          0  HIT %:        100  MISS %:          0   MPKI: 0
PSCL3 PREFETCH  REQUESTED:          0  ISSUED:          0  USEFUL:          0  USELESS:          0
PSCL3 USEFUL LOAD PREFETCHES:          0 PREFETCH ISSUED TO LOWER LEVEL:          0  ACCURACY: -nan
PSCL3 TIMELY PREFETCHES:          0 LATE PREFETCHES: 0 DROPPED PREFETCHES: 0
PSCL3 PREFETCHES SAME FILL-ORIGIN LEVEL: 0 DIFFERENT FILL-ORIGIN LEVEL: 0

PSCL2 TOTAL     ACCESS:      29634  HIT:      20918  MISS:       8716  HIT %:    70.5878  MISS %:    29.4122   MPKI: 0.04358
PSCL2 LOAD TRANSLATION ACCESS:      22911  HIT:      14195  MISS:       8716  HIT %:    61.9571  MISS %:    38.0429   MPKI: 0.04358
PSCL2 TRANSLATION FROM L1D PREFETCHER ACCESS:       6723  HIT:       6723  MISS:          0  HIT %:        100  MISS %:          0   MPKI: 0
PSCL2 PREFETCH  REQUESTED:          0  ISSUED:          0  USEFUL:          0  USELESS:          0
PSCL2 USEFUL LOAD PREFETCHES:          0 PREFETCH ISSUED TO LOWER LEVEL:          0  ACCURACY: -nan
PSCL2 TIMELY PREFETCHES:          0 LATE PREFETCHES: 0 DROPPED PREFETCHES: 0
PSCL2 PREFETCHES SAME FILL-ORIGIN LEVEL: 0 DIFFERENT FILL-ORIGIN LEVEL: 0

LLC TOTAL     ACCESS:     901928  HIT:     818014  MISS:      83914  HIT %:    90.6962  MISS %:    9.30385   MPKI: 0.41957
LLC LOAD      ACCESS:     428892  HIT:     370842  MISS:      58050  HIT %:    86.4651  MISS %:    13.5349   MPKI: 0.29025
LLC RFO       ACCESS:     101153  HIT:      81141  MISS:      20012  HIT %:    80.2161  MISS %:    19.7839   MPKI: 0.10006
LLC PREFETCH  ACCESS:      67505  HIT:      63008  MISS:       4497  HIT %:    93.3383  MISS %:    6.66173   MPKI: 0.022485
AGUS PREFETCH L1 MISS: 0
LLC WRITEBACK ACCESS:     278091  HIT:     277402  MISS:        689  HIT %:    99.7522  MISS %:   0.247761   MPKI: 0.003445
LLC LOAD TRANSLATION ACCESS:      19185  HIT:      18763  MISS:        422  HIT %:    97.8004  MISS %:    2.19964   MPKI: 0.00211
LLC TRANSLATION FROM L1D PREFETCHER ACCESS:       7102  HIT:       6858  MISS:        244  HIT %:    96.5643  MISS %:    3.43565   MPKI: 0.00122
LLC PREFETCH  REQUESTED:          0  ISSUED:          0  USEFUL:        264  USELESS:       2863
LLC USEFUL LOAD PREFETCHES:        264 PREFETCH ISSUED TO LOWER LEVEL:       4497  ACCURACY: 5.87058
LLC TIMELY PREFETCHES:        264 LATE PREFETCHES: 0 DROPPED PREFETCHES: 0
LLC PREFETCHES SAME FILL-ORIGIN LEVEL: 0 DIFFERENT FILL-ORIGIN LEVEL: 0
LLC AVERAGE MISS LATENCY: 156.039 cycles
LLC RQ	ACCESS:     556335	FORWARD:          0	MERGED:          0	TO_CACHE:     556332
LLC WQ	ACCESS:     278091	FORWARD:          3	MERGED:          0	TO_CACHE:     278091
LLC PQ	ACCESS:      67505	FORWARD:          0	MERGED:          0	TO_CACHE:      67505

LLC Dense regions hint to LLC: 0

RAW hits: 2102034
Loads Generated: 48099756
Loads sent to L1D: 45997720
Stores Generated: 24697058
Stores sent to L1D: 24697059
Major fault: 0 Minor fault: 5748
Allocated PAGES: 5748
Completed 

DRAM Statistics
 CHANNEL 0
 RQ ROW_BUFFER_HIT:      20798  ROW_BUFFER_MISS:      62425
 DBUS_CONGESTED:         10
 WQ ROW_BUFFER_HIT:       3799  ROW_BUFFER_MISS:      28482  FULL:          0

 AVG_CONGESTED_CYCLE: 6
 All warmup complete: 2
Channel 0 Bank busy for read cycles: 0
Channel 0 Bank busy for write cycles: 0
Channel 0
Rank 0
0banks busy for read cycles: 387276673
0banks busy for write cycles: 22313
1banks busy for read cycles: 7244846
1banks busy for write cycles: 3412825
2banks busy for read cycles: 824215
2banks busy for write cycles: 625257
3banks busy for read cycles: 163768
3banks busy for write cycles: 73103
4banks busy for read cycles: 27296
4banks busy for write cycles: 59415
5banks busy for read cycles: 30227
5banks busy for write cycles: 22933
6banks busy for read cycles: 31364
6banks busy for write cycles: 12843
7banks busy for read cycles: 34535
7banks busy for write cycles: 13491
8banks busy for read cycles: 42271
8banks busy for write cycles: 8242

CPU 0 Branch Prediction Accuracy: 99.9778% MPKI: 0.038155 Average ROB Occupancy at Mispredict: 24.1165
Branch types
NOT_BRANCH: 165656550 82.8283%
BRANCH_DIRECT_JUMP: 2068715 1.03436%
BRANCH_INDIRECT: 12589489 6.29474%
BRANCH_CONDITIONAL: 10225817 5.11291%
BRANCH_DIRECT_CALL: 3834256 1.91713%
BRANCH_INDIRECT_CALL: 895479 0.44774%
BRANCH_RETURN: 4729714 2.36486%
BRANCH_OTHER: 0 0%

DRAM PAGES: 1048576
Allocated PAGES: 5748
