
*** ChampSim Multicore Out-of-Order Simulator ***

Warmup Instructions: 50000000
Simulation Instructions: 200000000
Number of CPUs: 1
LLC sets: 2048
LLC ways: 16
Off-chip DRAM Size: 4096 MB Channels: 1 Width: 64-bit Data Rate: 6400 MT/s
CPU 0 runs traces/spec2k17/server_016.champsimtrace.xz
.xz
BTB has LRU replacement policy
ITLB has LRU replacement policy
DTLB has LRU replacement policy
STLB has LRU replacement policy
L1I has LRU replacement policy
L1D has LRU replacement policy
Initialize SRRIP state for L2C
Initialize DRRIP state for LLC
Heartbeat CPU 0 instructions: 10000000 cycles: 2811433 heartbeat IPC: 3.55691 cumulative IPC: 3.55691 (Simulation time: 0 hr 0 min 48 sec) 
Heartbeat CPU 0 instructions: 20000001 cycles: 5617461 heartbeat IPC: 3.56376 cumulative IPC: 3.56033 (Simulation time: 0 hr 1 min 19 sec) 
Heartbeat CPU 0 instructions: 30000000 cycles: 8422980 heartbeat IPC: 3.5644 cumulative IPC: 3.56168 (Simulation time: 0 hr 1 min 50 sec) 
Heartbeat CPU 0 instructions: 40000000 cycles: 11528344 heartbeat IPC: 3.22023 cumulative IPC: 3.46971 (Simulation time: 0 hr 2 min 9 sec) 
Heartbeat CPU 0 instructions: 50000001 cycles: 14794818 heartbeat IPC: 3.06141 cumulative IPC: 3.37956 (Simulation time: 0 hr 2 min 23 sec) 

Warmup complete CPU 0 instructions: 50000001 cycles: 14794818 (Simulation time: 0 hr 2 min 23 sec) 

Heartbeat CPU 0 instructions: 60000001 cycles: 29232849 heartbeat IPC: 0.692615 cumulative IPC: 0.692615 (Simulation time: 0 hr 2 min 55 sec) 
Heartbeat CPU 0 instructions: 70000001 cycles: 58854274 heartbeat IPC: 0.337593 cumulative IPC: 0.453932 (Simulation time: 0 hr 3 min 38 sec) 
Heartbeat CPU 0 instructions: 80000000 cycles: 89375314 heartbeat IPC: 0.327643 cumulative IPC: 0.40225 (Simulation time: 0 hr 4 min 31 sec) 
Heartbeat CPU 0 instructions: 90000001 cycles: 118864532 heartbeat IPC: 0.339107 cumulative IPC: 0.384358 (Simulation time: 0 hr 5 min 14 sec) 
Heartbeat CPU 0 instructions: 100000000 cycles: 148796212 heartbeat IPC: 0.334094 cumulative IPC: 0.37313 (Simulation time: 0 hr 6 min 19 sec) 
*** Reached end of trace for Core: 0 Repeating trace: traces/spec2k17/server_016.champsimtrace.xz
Heartbeat CPU 0 instructions: 110000000 cycles: 178156187 heartbeat IPC: 0.3406 cumulative IPC: 0.367284 (Simulation time: 0 hr 7 min 24 sec) 
Heartbeat CPU 0 instructions: 120000003 cycles: 208132011 heartbeat IPC: 0.333602 cumulative IPC: 0.362062 (Simulation time: 0 hr 8 min 27 sec) 
Heartbeat CPU 0 instructions: 130000000 cycles: 237738808 heartbeat IPC: 0.33776 cumulative IPC: 0.358835 (Simulation time: 0 hr 9 min 29 sec) 
Heartbeat CPU 0 instructions: 140000000 cycles: 261934666 heartbeat IPC: 0.413294 cumulative IPC: 0.364166 (Simulation time: 0 hr 10 min 22 sec) 
Heartbeat CPU 0 instructions: 150000003 cycles: 276371822 heartbeat IPC: 0.692657 cumulative IPC: 0.382297 (Simulation time: 0 hr 11 min 3 sec) 
Heartbeat CPU 0 instructions: 160000001 cycles: 290809068 heartbeat IPC: 0.692653 cumulative IPC: 0.39853 (Simulation time: 0 hr 11 min 43 sec) 
Heartbeat CPU 0 instructions: 170000000 cycles: 315719420 heartbeat IPC: 0.401439 cumulative IPC: 0.398771 (Simulation time: 0 hr 12 min 30 sec) 
Heartbeat CPU 0 instructions: 180000003 cycles: 345812871 heartbeat IPC: 0.332298 cumulative IPC: 0.392728 (Simulation time: 0 hr 13 min 12 sec) 
Heartbeat CPU 0 instructions: 190000000 cycles: 375728137 heartbeat IPC: 0.334277 cumulative IPC: 0.387883 (Simulation time: 0 hr 13 min 54 sec) 
Heartbeat CPU 0 instructions: 200000000 cycles: 404856092 heartbeat IPC: 0.343313 cumulative IPC: 0.384555 (Simulation time: 0 hr 14 min 35 sec) 
*** Reached end of trace for Core: 0 Repeating trace: traces/spec2k17/server_016.champsimtrace.xz
Heartbeat CPU 0 instructions: 210000000 cycles: 434431455 heartbeat IPC: 0.338119 cumulative IPC: 0.381282 (Simulation time: 0 hr 15 min 27 sec) 
Heartbeat CPU 0 instructions: 220000000 cycles: 464061587 heartbeat IPC: 0.337494 cumulative IPC: 0.378394 (Simulation time: 0 hr 16 min 29 sec) 
Heartbeat CPU 0 instructions: 230000000 cycles: 493484662 heartbeat IPC: 0.339869 cumulative IPC: 0.376026 (Simulation time: 0 hr 17 min 36 sec) 
Heartbeat CPU 0 instructions: 240000000 cycles: 522084603 heartbeat IPC: 0.349651 cumulative IPC: 0.374539 (Simulation time: 0 hr 18 min 27 sec) 
Heartbeat CPU 0 instructions: 250000003 cycles: 536555168 heartbeat IPC: 0.691058 cumulative IPC: 0.383318 (Simulation time: 0 hr 18 min 55 sec) 
Finished CPU 0 instructions: 200000002 cycles: 521760350 cumulative IPC: 0.383318 (Simulation time: 0 hr 18 min 55 sec) 

ChampSim completed all CPUs

Region of Interest Statistics

CPU 0 cumulative IPC: 0.383318 instructions: 200000002 cycles: 521760350
ITLB TOTAL     ACCESS:   37653507  HIT:   36243299  MISS:    1410208  HIT %:    96.2548  MISS %:    3.74522   MPKI: 7.05104
ITLB LOAD TRANSLATION ACCESS:   37653507  HIT:   36243299  MISS:    1410208  HIT %:    96.2548  MISS %:    3.74522   MPKI: 7.05104
ITLB PREFETCH  REQUESTED:          0  ISSUED:          0  USEFUL:          0  USELESS:          0
ITLB USEFUL LOAD PREFETCHES:          0 PREFETCH ISSUED TO LOWER LEVEL:          0  ACCURACY: -nan
ITLB TIMELY PREFETCHES:          0 LATE PREFETCHES: 0 DROPPED PREFETCHES: 0
ITLB PREFETCHES SAME FILL-ORIGIN LEVEL: 0 DIFFERENT FILL-ORIGIN LEVEL: 0
ITLB AVERAGE MISS LATENCY: 9.07643 cycles
ITLB RQ	ACCESS:   42294105	FORWARD:          0	MERGED:    4300477	TO_CACHE:   37993628

DTLB TOTAL     ACCESS:   39366738  HIT:   37995868  MISS:    1370870  HIT %:    96.5177  MISS %:    3.48231   MPKI: 6.85435
DTLB LOAD TRANSLATION ACCESS:   39366738  HIT:   37995868  MISS:    1370870  HIT %:    96.5177  MISS %:    3.48231   MPKI: 6.85435
DTLB PREFETCH  REQUESTED:          0  ISSUED:          0  USEFUL:          0  USELESS:          0
DTLB USEFUL LOAD PREFETCHES:          0 PREFETCH ISSUED TO LOWER LEVEL:          0  ACCURACY: -nan
DTLB TIMELY PREFETCHES:          0 LATE PREFETCHES: 0 DROPPED PREFETCHES: 0
DTLB PREFETCHES SAME FILL-ORIGIN LEVEL: 0 DIFFERENT FILL-ORIGIN LEVEL: 0
DTLB AVERAGE MISS LATENCY: 8.73312 cycles
DTLB RQ	ACCESS:   50786586	FORWARD:          0	MERGED:   11369104	TO_CACHE:   39417482

STLB TOTAL     ACCESS:   14540098  HIT:   14530175  MISS:       9923  HIT %:    99.9318  MISS %:  0.0682458   MPKI: 0.049615
STLB LOAD TRANSLATION ACCESS:    2781078  HIT:    2772698  MISS:       8380  HIT %:    99.6987  MISS %:   0.301322   MPKI: 0.0419
STLB TRANSLATION FROM L1D PREFETCHER ACCESS:   11759020  HIT:   11757477  MISS:       1543  HIT %:    99.9869  MISS %:  0.0131218   MPKI: 0.007715
STLB PREFETCH  REQUESTED:          0  ISSUED:          0  USEFUL:       1036  USELESS:        482
STLB USEFUL LOAD PREFETCHES:       1036 PREFETCH ISSUED TO LOWER LEVEL:          0  ACCURACY: inf
STLB TIMELY PREFETCHES:       1036 LATE PREFETCHES: 153 DROPPED PREFETCHES: 137492
STLB PREFETCHES SAME FILL-ORIGIN LEVEL: 0 DIFFERENT FILL-ORIGIN LEVEL: 0
STLB AVERAGE MISS LATENCY: 53.5694 cycles
STLB RQ	ACCESS:   17525255	FORWARD:          0	MERGED:    2847311	TO_CACHE:   14677944

STLB Hit, L1D data hit: 0
STLB Hit, L2C data hit: 0
STLB Hit, LLC data hit: 0
STLB Hit, LLC data miss: 0
STLB STLB hints to L2: 0
L1D TOTAL     ACCESS:   63608759  HIT:   60369781  MISS:    3238978  HIT %:     94.908  MISS %:    5.09203   MPKI: 16.1949
L1D LOAD      ACCESS:   29979756  HIT:   28207425  MISS:    1772331  HIT %:    94.0882  MISS %:    5.91176   MPKI: 8.86165
L1D RFO       ACCESS:   19490943  HIT:   18698092  MISS:     792851  HIT %:    95.9322  MISS %:    4.06779   MPKI: 3.96425
L1D PREFETCH  ACCESS:   14138060  HIT:   13464264  MISS:     673796  HIT %:    95.2342  MISS %:    4.76583   MPKI: 3.36898
AGUS PREFETCH L1 MISS: 0
L1D PREFETCH  REQUESTED:   32061333  ISSUED:   32061176  USEFUL:     450621  USELESS:     223143
L1D USEFUL LOAD PREFETCHES:     450621 PREFETCH ISSUED TO LOWER LEVEL:     872343  ACCURACY: 51.6564
L1D TIMELY PREFETCHES:     450621 LATE PREFETCHES: 197015 DROPPED PREFETCHES: 155886
L1D PREFETCHES SAME FILL-ORIGIN LEVEL: 872343 DIFFERENT FILL-ORIGIN LEVEL: 0
L1D AVERAGE MISS LATENCY: 2.12592e+07 cycles
L1D RQ	ACCESS:   40520286	FORWARD:          0	MERGED:   10215647	TO_CACHE:   30055938
L1D WQ	ACCESS:   20857481	FORWARD:     271727	MERGED:     126833	TO_CACHE:   20730648
L1D PQ	ACCESS:   17316999	FORWARD:          0	MERGED:    2549796	TO_CACHE:   14744177

L1D UNIQUE REGIONS ACCESSED: 0
L1D REGIONS CONFLICTS: 0
L1D Cross Page Prefetch Requests: 9324804
L1D Same Page Prefetch Requests: 10084911
L1D ROI Sum of L1D PQ occupancy: 203104817
L1D PREFETCHES PUSHED FROM L2C: 0
L1I TOTAL     ACCESS:   41215187  HIT:   33839975  MISS:    7375212  HIT %:    82.1056  MISS %:    17.8944   MPKI: 36.8761
L1I LOAD      ACCESS:   41215187  HIT:   33839975  MISS:    7375212  HIT %:    82.1056  MISS %:    17.8944   MPKI: 36.8761
L1I PREFETCH  REQUESTED:          0  ISSUED:          0  USEFUL:          0  USELESS:          0
L1I USEFUL LOAD PREFETCHES:          0 PREFETCH ISSUED TO LOWER LEVEL:          0  ACCURACY: -nan
L1I TIMELY PREFETCHES:          0 LATE PREFETCHES: 0 DROPPED PREFETCHES: 0
L1I PREFETCHES SAME FILL-ORIGIN LEVEL: 0 DIFFERENT FILL-ORIGIN LEVEL: 0
L1I AVERAGE MISS LATENCY: 16.5799 cycles
L1I RQ	ACCESS:   59995680	FORWARD:          0	MERGED:   17701575	TO_CACHE:   42294105

BTB TOTAL     ACCESS:   31149502  HIT:   22487623  MISS:    8661879  HIT %:    72.1926  MISS %:    27.8074   MPKI: 43.3094
BTB BRANCH_DIRECT_JUMP	ACCESS:    1790889  HIT:    1185918  MISS:     604971
BTB BRANCH_INDIRECT	ACCESS:    9233189  HIT:    5986023  MISS:    3247166
BTB BRANCH_CONDITIONAL	ACCESS:   13716226  HIT:   12843151  MISS:     873075
BTB BRANCH_DIRECT_CALL	ACCESS:    2729399  HIT:    1310065  MISS:    1419334
BTB BRANCH_INDIRECT_CALL	ACCESS:     475210  HIT:     188709  MISS:     286501
BTB BRANCH_RETURN	ACCESS:    3204589  HIT:     973757  MISS:    2230832
BTB BRANCH_OTHER ACCESS:          0  HIT:          0  MISS:          0

L2C TOTAL     ACCESS:   12223060  HIT:   11041516  MISS:    1181544  HIT %:    90.3335  MISS %:    9.66652   MPKI: 5.90772
L2C LOAD      ACCESS:    8950508  HIT:    8087466  MISS:     863042  HIT %:    90.3576  MISS %:    9.64238   MPKI: 4.31521
L2C DATA LOAD MPKI: 1.31813
L2C INSTRUCTION LOAD MPKI: 2.99708
L2C RFO       ACCESS:     791304  HIT:     643530  MISS:     147774  HIT %:    81.3253  MISS %:    18.6747   MPKI: 0.73887
L2C PREFETCH  ACCESS:     872339  HIT:     760566  MISS:     111773  HIT %:     87.187  MISS %:     12.813   MPKI: 0.558865
AGUS PREFETCH L1 MISS: 0
L2C DATA PREFETCH MPKI: 0.558865
L2C INSTRUCTION PREFETCH MPKI: 0
L2C WRITEBACK ACCESS:    1411628  HIT:    1377614  MISS:      34014  HIT %:    97.5904  MISS %:    2.40956   MPKI: 0.17007
L2C LOAD TRANSLATION ACCESS:       9237  HIT:       3280  MISS:       5957  HIT %:    35.5094  MISS %:    64.4906   MPKI: 0.029785
L2C TRANSLATION FROM L1D PREFETCHER ACCESS:     188044  HIT:     169060  MISS:      18984  HIT %:    89.9045  MISS %:    10.0955   MPKI: 0.09492
L2C PREFETCH  REQUESTED:          0  ISSUED:          0  USEFUL:      25405  USELESS:     105294
L2C USEFUL LOAD PREFETCHES:      25405 PREFETCH ISSUED TO LOWER LEVEL:     111773  ACCURACY: 22.7291
L2C TIMELY PREFETCHES:      25405 LATE PREFETCHES: 0 DROPPED PREFETCHES: 0
L2C PREFETCHES SAME FILL-ORIGIN LEVEL: 0 DIFFERENT FILL-ORIGIN LEVEL: 0
L2C AVERAGE MISS LATENCY: 43.8367 cycles
L2C RQ	ACCESS:    9939128	FORWARD:          0	MERGED:          0	TO_CACHE:    9939093
L2C WQ	ACCESS:    1411628	FORWARD:         39	MERGED:          0	TO_CACHE:    1411628
L2C PQ	ACCESS:     872343	FORWARD:          0	MERGED:          0	TO_CACHE:     872339

L2C Instructions Evicting Data 251752
L2C Translations Evicting Data 14386
L2C Data Evicting Data 277305
L2C Instructions Evicting Instructions 337463
L2C Translations Evicting Instructions 9792
L2C Data Evicting Instructions 232369
L2C Instructions Evicting Translations 10201
L2C Translations Evicting Translations 763
L2C Data Evicting Translations 13499
L2C Dense regions hint from L2: 0
PSCL5 TOTAL     ACCESS:     146202  HIT:     146202  MISS:          0  HIT %:        100  MISS %:          0   MPKI: 0
PSCL5 LOAD TRANSLATION ACCESS:       8234  HIT:       8234  MISS:          0  HIT %:        100  MISS %:          0   MPKI: 0
PSCL5 TRANSLATION FROM L1D PREFETCHER ACCESS:     137968  HIT:     137968  MISS:          0  HIT %:        100  MISS %:          0   MPKI: 0
PSCL5 PREFETCH  REQUESTED:          0  ISSUED:          0  USEFUL:          0  USELESS:          0
PSCL5 USEFUL LOAD PREFETCHES:          0 PREFETCH ISSUED TO LOWER LEVEL:          0  ACCURACY: -nan
PSCL5 TIMELY PREFETCHES:          0 LATE PREFETCHES: 0 DROPPED PREFETCHES: 0
PSCL5 PREFETCHES SAME FILL-ORIGIN LEVEL: 0 DIFFERENT FILL-ORIGIN LEVEL: 0

PSCL4 TOTAL     ACCESS:     113009  HIT:     112950  MISS:         59  HIT %:    99.9478  MISS %:  0.0522082   MPKI: 0.000295
PSCL4 LOAD TRANSLATION ACCESS:       7456  HIT:       7397  MISS:         59  HIT %:    99.2087  MISS %:   0.791309   MPKI: 0.000295
PSCL4 TRANSLATION FROM L1D PREFETCHER ACCESS:     105553  HIT:     105553  MISS:          0  HIT %:        100  MISS %:          0   MPKI: 0
PSCL4 PREFETCH  REQUESTED:          0  ISSUED:          0  USEFUL:          0  USELESS:          0
PSCL4 USEFUL LOAD PREFETCHES:          0 PREFETCH ISSUED TO LOWER LEVEL:          0  ACCURACY: -nan
PSCL4 TIMELY PREFETCHES:          0 LATE PREFETCHES: 0 DROPPED PREFETCHES: 0
PSCL4 PREFETCHES SAME FILL-ORIGIN LEVEL: 0 DIFFERENT FILL-ORIGIN LEVEL: 0

PSCL3 TOTAL     ACCESS:     121575  HIT:     121516  MISS:         59  HIT %:    99.9515  MISS %:  0.0485297   MPKI: 0.000295
PSCL3 LOAD TRANSLATION ACCESS:       8050  HIT:       7991  MISS:         59  HIT %:    99.2671  MISS %:   0.732919   MPKI: 0.000295
PSCL3 TRANSLATION FROM L1D PREFETCHER ACCESS:     113525  HIT:     113525  MISS:          0  HIT %:        100  MISS %:          0   MPKI: 0
PSCL3 PREFETCH  REQUESTED:          0  ISSUED:          0  USEFUL:          0  USELESS:          0
PSCL3 USEFUL LOAD PREFETCHES:          0 PREFETCH ISSUED TO LOWER LEVEL:          0  ACCURACY: -nan
PSCL3 TIMELY PREFETCHES:          0 LATE PREFETCHES: 0 DROPPED PREFETCHES: 0
PSCL3 PREFETCHES SAME FILL-ORIGIN LEVEL: 0 DIFFERENT FILL-ORIGIN LEVEL: 0

PSCL2 TOTAL     ACCESS:      41055  HIT:      40058  MISS:        997  HIT %:    97.5716  MISS %:    2.42845   MPKI: 0.004985
PSCL2 LOAD TRANSLATION ACCESS:       8330  HIT:       7333  MISS:        997  HIT %:    88.0312  MISS %:    11.9688   MPKI: 0.004985
PSCL2 TRANSLATION FROM L1D PREFETCHER ACCESS:      32725  HIT:      32725  MISS:          0  HIT %:        100  MISS %:          0   MPKI: 0
PSCL2 PREFETCH  REQUESTED:          0  ISSUED:          0  USEFUL:          0  USELESS:          0
PSCL2 USEFUL LOAD PREFETCHES:          0 PREFETCH ISSUED TO LOWER LEVEL:          0  ACCURACY: -nan
PSCL2 TIMELY PREFETCHES:          0 LATE PREFETCHES: 0 DROPPED PREFETCHES: 0
PSCL2 PREFETCHES SAME FILL-ORIGIN LEVEL: 0 DIFFERENT FILL-ORIGIN LEVEL: 0

LLC TOTAL     ACCESS:    1355626  HIT:    1250298  MISS:     105328  HIT %:    92.2303  MISS %:    7.76969   MPKI: 0.52664
LLC LOAD      ACCESS:     863042  HIT:     825493  MISS:      37549  HIT %:    95.6492  MISS %:    4.35077   MPKI: 0.187745
LLC RFO       ACCESS:     147766  HIT:      94383  MISS:      53383  HIT %:    63.8733  MISS %:    36.1267   MPKI: 0.266915
LLC PREFETCH  ACCESS:     111773  HIT:     100166  MISS:      11607  HIT %:    89.6156  MISS %:    10.3844   MPKI: 0.058035
AGUS PREFETCH L1 MISS: 0
LLC WRITEBACK ACCESS:     208104  HIT:     207168  MISS:        936  HIT %:    99.5502  MISS %:   0.449775   MPKI: 0.00468
LLC LOAD TRANSLATION ACCESS:       5957  HIT:       5549  MISS:        408  HIT %:    93.1509  MISS %:    6.84909   MPKI: 0.00204
LLC TRANSLATION FROM L1D PREFETCHER ACCESS:      18984  HIT:      17539  MISS:       1445  HIT %:    92.3883  MISS %:    7.61167   MPKI: 0.007225
LLC PREFETCH  REQUESTED:          0  ISSUED:          0  USEFUL:       1756  USELESS:      10826
LLC USEFUL LOAD PREFETCHES:       1756 PREFETCH ISSUED TO LOWER LEVEL:      11607  ACCURACY: 15.1288
LLC TIMELY PREFETCHES:       1756 LATE PREFETCHES: 0 DROPPED PREFETCHES: 0
LLC PREFETCHES SAME FILL-ORIGIN LEVEL: 0 DIFFERENT FILL-ORIGIN LEVEL: 0
LLC AVERAGE MISS LATENCY: 164.618 cycles
LLC RQ	ACCESS:    1035757	FORWARD:          0	MERGED:          0	TO_CACHE:    1035749
LLC WQ	ACCESS:     208104	FORWARD:          8	MERGED:          0	TO_CACHE:     208104
LLC PQ	ACCESS:     111773	FORWARD:          0	MERGED:          0	TO_CACHE:     111773

LLC Dense regions hint to LLC: 0

RAW hits: 1212753
Loads Generated: 41733040
Loads sent to L1D: 40520286
Stores Generated: 20857481
Stores sent to L1D: 20857481
Major fault: 0 Minor fault: 2472
Allocated PAGES: 2472
Completed 

DRAM Statistics
 CHANNEL 0
 RQ ROW_BUFFER_HIT:      37791  ROW_BUFFER_MISS:      66591
 DBUS_CONGESTED:         56
 WQ ROW_BUFFER_HIT:       4825  ROW_BUFFER_MISS:      53372  FULL:          0

 AVG_CONGESTED_CYCLE: 4
 All warmup complete: 2
Channel 0 Bank busy for read cycles: 0
Channel 0 Bank busy for write cycles: 0
Channel 0
Rank 0
0banks busy for read cycles: 512974807
0banks busy for write cycles: 14961
1banks busy for read cycles: 3486703
1banks busy for write cycles: 1965809
2banks busy for read cycles: 442473
2banks busy for write cycles: 386317
3banks busy for read cycles: 257136
3banks busy for write cycles: 187922
4banks busy for read cycles: 207890
4banks busy for write cycles: 141432
5banks busy for read cycles: 156131
5banks busy for write cycles: 132346
6banks busy for read cycles: 146169
6banks busy for write cycles: 134716
7banks busy for read cycles: 160107
7banks busy for write cycles: 152621
8banks busy for read cycles: 394925
8banks busy for write cycles: 417886

CPU 0 Branch Prediction Accuracy: 99.773% MPKI: 0.39801 Average ROB Occupancy at Mispredict: 36.1462
Branch types
NOT_BRANCH: 164926668 82.4633%
BRANCH_DIRECT_JUMP: 1790889 0.895444%
BRANCH_INDIRECT: 9233189 4.61659%
BRANCH_CONDITIONAL: 17640059 8.82003%
BRANCH_DIRECT_CALL: 2729399 1.3647%
BRANCH_INDIRECT_CALL: 475210 0.237605%
BRANCH_RETURN: 3204589 1.60229%
BRANCH_OTHER: 0 0%

DRAM PAGES: 1048576
Allocated PAGES: 2472
