
*** ChampSim Multicore Out-of-Order Simulator ***

Warmup Instructions: 50000000
Simulation Instructions: 200000000
Number of CPUs: 1
LLC sets: 2048
LLC ways: 16
Off-chip DRAM Size: 4096 MB Channels: 1 Width: 64-bit Data Rate: 6400 MT/s
CPU 0 runs traces/spec2k17/server_020.champsimtrace.xz
.xz
BTB has LRU replacement policy
ITLB has LRU replacement policy
DTLB has LRU replacement policy
STLB has LRU replacement policy
L1I has LRU replacement policy
L1D has LRU replacement policy
Initialize SRRIP state for L2C
Initialize DRRIP state for LLC
Heartbeat CPU 0 instructions: 10000000 cycles: 2938987 heartbeat IPC: 3.40253 cumulative IPC: 3.40253 (Simulation time: 0 hr 0 min 55 sec) 
Heartbeat CPU 0 instructions: 20000001 cycles: 5877420 heartbeat IPC: 3.40317 cumulative IPC: 3.40285 (Simulation time: 0 hr 1 min 38 sec) 
Heartbeat CPU 0 instructions: 30000000 cycles: 8817873 heartbeat IPC: 3.40084 cumulative IPC: 3.40218 (Simulation time: 0 hr 2 min 19 sec) 
Heartbeat CPU 0 instructions: 40000000 cycles: 11758514 heartbeat IPC: 3.40062 cumulative IPC: 3.40179 (Simulation time: 0 hr 2 min 52 sec) 
Heartbeat CPU 0 instructions: 50000000 cycles: 14696282 heartbeat IPC: 3.40394 cumulative IPC: 3.40222 (Simulation time: 0 hr 3 min 25 sec) 

Warmup complete CPU 0 instructions: 50000004 cycles: 14696283 (Simulation time: 0 hr 3 min 25 sec) 

Heartbeat CPU 0 instructions: 60000002 cycles: 35525125 heartbeat IPC: 0.480104 cumulative IPC: 0.480103 (Simulation time: 0 hr 4 min 41 sec) 
Heartbeat CPU 0 instructions: 70000000 cycles: 56227001 heartbeat IPC: 0.483048 cumulative IPC: 0.481571 (Simulation time: 0 hr 5 min 52 sec) 
Heartbeat CPU 0 instructions: 80000001 cycles: 76987848 heartbeat IPC: 0.481676 cumulative IPC: 0.481606 (Simulation time: 0 hr 6 min 59 sec) 
Heartbeat CPU 0 instructions: 90000001 cycles: 97691686 heartbeat IPC: 0.483002 cumulative IPC: 0.481954 (Simulation time: 0 hr 8 min 14 sec) 
Heartbeat CPU 0 instructions: 100000000 cycles: 118270586 heartbeat IPC: 0.485935 cumulative IPC: 0.482745 (Simulation time: 0 hr 9 min 29 sec) 
*** Reached end of trace for Core: 0 Repeating trace: traces/spec2k17/server_020.champsimtrace.xz
Heartbeat CPU 0 instructions: 110000000 cycles: 138958857 heartbeat IPC: 0.483366 cumulative IPC: 0.482848 (Simulation time: 0 hr 10 min 40 sec) 
Heartbeat CPU 0 instructions: 120000001 cycles: 159509336 heartbeat IPC: 0.486607 cumulative IPC: 0.483382 (Simulation time: 0 hr 11 min 34 sec) 
Heartbeat CPU 0 instructions: 130000001 cycles: 180077707 heartbeat IPC: 0.486183 cumulative IPC: 0.48373 (Simulation time: 0 hr 12 min 34 sec) 
Heartbeat CPU 0 instructions: 140000000 cycles: 200458102 heartbeat IPC: 0.490668 cumulative IPC: 0.484491 (Simulation time: 0 hr 13 min 49 sec) 
Heartbeat CPU 0 instructions: 150000002 cycles: 220956871 heartbeat IPC: 0.487834 cumulative IPC: 0.484824 (Simulation time: 0 hr 15 min 9 sec) 
Heartbeat CPU 0 instructions: 160000002 cycles: 241788213 heartbeat IPC: 0.480046 cumulative IPC: 0.484385 (Simulation time: 0 hr 16 min 27 sec) 
Heartbeat CPU 0 instructions: 170000001 cycles: 262356665 heartbeat IPC: 0.486181 cumulative IPC: 0.484535 (Simulation time: 0 hr 17 min 37 sec) 
Heartbeat CPU 0 instructions: 180000001 cycles: 282878687 heartbeat IPC: 0.487281 cumulative IPC: 0.484745 (Simulation time: 0 hr 18 min 51 sec) 
Heartbeat CPU 0 instructions: 190000000 cycles: 303456631 heartbeat IPC: 0.485957 cumulative IPC: 0.484831 (Simulation time: 0 hr 20 min 2 sec) 
Heartbeat CPU 0 instructions: 200000003 cycles: 323941008 heartbeat IPC: 0.488177 cumulative IPC: 0.485053 (Simulation time: 0 hr 21 min 16 sec) 
Heartbeat CPU 0 instructions: 210000001 cycles: 344547932 heartbeat IPC: 0.485274 cumulative IPC: 0.485067 (Simulation time: 0 hr 22 min 30 sec) 
*** Reached end of trace for Core: 0 Repeating trace: traces/spec2k17/server_020.champsimtrace.xz
Heartbeat CPU 0 instructions: 220000000 cycles: 365035241 heartbeat IPC: 0.488107 cumulative IPC: 0.485244 (Simulation time: 0 hr 23 min 39 sec) 
Heartbeat CPU 0 instructions: 230000001 cycles: 385415762 heartbeat IPC: 0.490665 cumulative IPC: 0.485542 (Simulation time: 0 hr 24 min 40 sec) 
Heartbeat CPU 0 instructions: 240000000 cycles: 405978263 heartbeat IPC: 0.486322 cumulative IPC: 0.485583 (Simulation time: 0 hr 25 min 29 sec) 
Heartbeat CPU 0 instructions: 250000000 cycles: 426408139 heartbeat IPC: 0.489479 cumulative IPC: 0.485777 (Simulation time: 0 hr 26 min 36 sec) 
Finished CPU 0 instructions: 200000000 cycles: 411711865 cumulative IPC: 0.485777 (Simulation time: 0 hr 26 min 36 sec) 

ChampSim completed all CPUs

Region of Interest Statistics

CPU 0 cumulative IPC: 0.485777 instructions: 200000000 cycles: 411711865
ITLB TOTAL     ACCESS:   33764181  HIT:   32271647  MISS:    1492534  HIT %:    95.5795  MISS %:    4.42047   MPKI: 7.46267
ITLB LOAD TRANSLATION ACCESS:   33764181  HIT:   32271647  MISS:    1492534  HIT %:    95.5795  MISS %:    4.42047   MPKI: 7.46267
ITLB PREFETCH  REQUESTED:          0  ISSUED:          0  USEFUL:          0  USELESS:          0
ITLB USEFUL LOAD PREFETCHES:          0 PREFETCH ISSUED TO LOWER LEVEL:          0  ACCURACY: -nan
ITLB TIMELY PREFETCHES:          0 LATE PREFETCHES: 0 DROPPED PREFETCHES: 0
ITLB PREFETCHES SAME FILL-ORIGIN LEVEL: 0 DIFFERENT FILL-ORIGIN LEVEL: 0
ITLB AVERAGE MISS LATENCY: 9.40449 cycles
ITLB RQ	ACCESS:   40557884	FORWARD:          0	MERGED:    6312126	TO_CACHE:   34245758

DTLB TOTAL     ACCESS:   39661612  HIT:   38092270  MISS:    1569342  HIT %:    96.0432  MISS %:    3.95683   MPKI: 7.84671
DTLB LOAD TRANSLATION ACCESS:   39661612  HIT:   38092270  MISS:    1569342  HIT %:    96.0432  MISS %:    3.95683   MPKI: 7.84671
DTLB PREFETCH  REQUESTED:          0  ISSUED:          0  USEFUL:          0  USELESS:          0
DTLB USEFUL LOAD PREFETCHES:          0 PREFETCH ISSUED TO LOWER LEVEL:          0  ACCURACY: -nan
DTLB TIMELY PREFETCHES:          0 LATE PREFETCHES: 0 DROPPED PREFETCHES: 0
DTLB PREFETCHES SAME FILL-ORIGIN LEVEL: 0 DIFFERENT FILL-ORIGIN LEVEL: 0
DTLB AVERAGE MISS LATENCY: 15.1148 cycles
DTLB RQ	ACCESS:   60346887	FORWARD:          0	MERGED:   20310401	TO_CACHE:   40036486

STLB TOTAL     ACCESS:    9241845  HIT:    9118287  MISS:     123558  HIT %:    98.6631  MISS %:    1.33694   MPKI: 0.61779
STLB LOAD TRANSLATION ACCESS:    3061875  HIT:    2940243  MISS:     121632  HIT %:    96.0275  MISS %:    3.97247   MPKI: 0.60816
STLB TRANSLATION FROM L1D PREFETCHER ACCESS:    6179970  HIT:    6178044  MISS:       1926  HIT %:    99.9688  MISS %:  0.0311652   MPKI: 0.00963
STLB PREFETCH  REQUESTED:          0  ISSUED:          0  USEFUL:       1578  USELESS:        346
STLB USEFUL LOAD PREFETCHES:       1578 PREFETCH ISSUED TO LOWER LEVEL:          0  ACCURACY: inf
STLB TIMELY PREFETCHES:       1578 LATE PREFETCHES: 470 DROPPED PREFETCHES: 20266
STLB PREFETCHES SAME FILL-ORIGIN LEVEL: 0 DIFFERENT FILL-ORIGIN LEVEL: 0
STLB AVERAGE MISS LATENCY: 87.4514 cycles
STLB RQ	ACCESS:   10303554	FORWARD:          0	MERGED:    1040407	TO_CACHE:    9263147

STLB Hit, L1D data hit: 0
STLB Hit, L2C data hit: 0
STLB Hit, LLC data hit: 0
STLB Hit, LLC data miss: 0
STLB STLB hints to L2: 0
L1D TOTAL     ACCESS:   55128569  HIT:   48303895  MISS:    6824674  HIT %:    87.6204  MISS %:    12.3796   MPKI: 34.1234
L1D LOAD      ACCESS:   26537893  HIT:   23543930  MISS:    2993963  HIT %:    88.7182  MISS %:    11.2818   MPKI: 14.9698
L1D RFO       ACCESS:   22269771  HIT:   18684708  MISS:    3585063  HIT %:    83.9017  MISS %:    16.0983   MPKI: 17.9253
L1D PREFETCH  ACCESS:    6320905  HIT:    6075257  MISS:     245648  HIT %:    96.1137  MISS %:    3.88628   MPKI: 1.22824
AGUS PREFETCH L1 MISS: 0
L1D PREFETCH  REQUESTED:   18008989  ISSUED:   18008260  USEFUL:     128337  USELESS:     117281
L1D USEFUL LOAD PREFETCHES:     128337 PREFETCH ISSUED TO LOWER LEVEL:     412869  ACCURACY: 31.0842
L1D TIMELY PREFETCHES:     128337 LATE PREFETCHES: 167037 DROPPED PREFETCHES: 20730
L1D PREFETCHES SAME FILL-ORIGIN LEVEL: 412869 DIFFERENT FILL-ORIGIN LEVEL: 0
L1D AVERAGE MISS LATENCY: 5.63541e+06 cycles
L1D RQ	ACCESS:   45061714	FORWARD:          0	MERGED:   17824221	TO_CACHE:   26957111
L1D WQ	ACCESS:   33586965	FORWARD:     310562	MERGED:     197189	TO_CACHE:   33389776
L1D PQ	ACCESS:   10766581	FORWARD:          0	MERGED:    3494722	TO_CACHE:    7241679

L1D UNIQUE REGIONS ACCESSED: 0
L1D REGIONS CONFLICTS: 0
L1D Cross Page Prefetch Requests: 4137860
L1D Same Page Prefetch Requests: 8339635
L1D ROI Sum of L1D PQ occupancy: 102648291
L1D PREFETCHES PUSHED FROM L2C: 0
L1I TOTAL     ACCESS:   37946881  HIT:   29025589  MISS:    8921292  HIT %:    76.4901  MISS %:    23.5099   MPKI: 44.6065
L1I LOAD      ACCESS:   37946881  HIT:   29025589  MISS:    8921292  HIT %:    76.4901  MISS %:    23.5099   MPKI: 44.6065
L1I PREFETCH  REQUESTED:          0  ISSUED:          0  USEFUL:          0  USELESS:          0
L1I USEFUL LOAD PREFETCHES:          0 PREFETCH ISSUED TO LOWER LEVEL:          0  ACCURACY: -nan
L1I TIMELY PREFETCHES:          0 LATE PREFETCHES: 0 DROPPED PREFETCHES: 0
L1I PREFETCHES SAME FILL-ORIGIN LEVEL: 0 DIFFERENT FILL-ORIGIN LEVEL: 0
L1I AVERAGE MISS LATENCY: 16.6439 cycles
L1I RQ	ACCESS:   58858910	FORWARD:          0	MERGED:   18301026	TO_CACHE:   40557884

BTB TOTAL     ACCESS:   25748402  HIT:   24111404  MISS:    1636998  HIT %:    93.6423  MISS %:    6.35767   MPKI: 8.18499
BTB BRANCH_DIRECT_JUMP	ACCESS:    1705434  HIT:    1695554  MISS:       9880
BTB BRANCH_INDIRECT	ACCESS:    9970641  HIT:    9389854  MISS:     580787
BTB BRANCH_CONDITIONAL	ACCESS:    7278514  HIT:    7264968  MISS:      13546
BTB BRANCH_DIRECT_CALL	ACCESS:    2773558  HIT:    2740277  MISS:      33281
BTB BRANCH_INDIRECT_CALL	ACCESS:     623355  HIT:     515242  MISS:     108113
BTB BRANCH_RETURN	ACCESS:    3396900  HIT:    2505509  MISS:     891391
BTB BRANCH_OTHER ACCESS:          0  HIT:          0  MISS:          0

L2C TOTAL     ACCESS:   20202542  HIT:   13544907  MISS:    6657635  HIT %:    67.0456  MISS %:    32.9544   MPKI: 33.2882
L2C LOAD      ACCESS:   11748145  HIT:    9041111  MISS:    2707034  HIT %:    76.9578  MISS %:    23.0422   MPKI: 13.5352
L2C DATA LOAD MPKI: 10.7212
L2C INSTRUCTION LOAD MPKI: 2.814
L2C RFO       ACCESS:    3584874  HIT:     153462  MISS:    3431412  HIT %:    4.28082  MISS %:    95.7192   MPKI: 17.1571
L2C PREFETCH  ACCESS:     412853  HIT:     123731  MISS:     289122  HIT %:    29.9697  MISS %:    70.0303   MPKI: 1.44561
AGUS PREFETCH L1 MISS: 0
L2C DATA PREFETCH MPKI: 1.44561
L2C INSTRUCTION PREFETCH MPKI: 0
L2C WRITEBACK ACCESS:    4289473  HIT:    4144522  MISS:     144951  HIT %:    96.6208  MISS %:    3.37923   MPKI: 0.724755
L2C LOAD TRANSLATION ACCESS:     134585  HIT:      61272  MISS:      73313  HIT %:    45.5266  MISS %:    54.4734   MPKI: 0.366565
L2C TRANSLATION FROM L1D PREFETCHER ACCESS:      32612  HIT:      20809  MISS:      11803  HIT %:    63.8078  MISS %:    36.1922   MPKI: 0.059015
L2C PREFETCH  REQUESTED:          0  ISSUED:          0  USEFUL:      16986  USELESS:     283974
L2C USEFUL LOAD PREFETCHES:      16986 PREFETCH ISSUED TO LOWER LEVEL:     289122  ACCURACY: 5.87503
L2C TIMELY PREFETCHES:      16986 LATE PREFETCHES: 0 DROPPED PREFETCHES: 0
L2C PREFETCHES SAME FILL-ORIGIN LEVEL: 0 DIFFERENT FILL-ORIGIN LEVEL: 0
L2C AVERAGE MISS LATENCY: 157.543 cycles
L2C RQ	ACCESS:   15500295	FORWARD:          0	MERGED:          0	TO_CACHE:   15500217
L2C WQ	ACCESS:    4289473	FORWARD:         94	MERGED:          0	TO_CACHE:    4289473
L2C PQ	ACCESS:     412869	FORWARD:          0	MERGED:          0	TO_CACHE:     412853

L2C Instructions Evicting Data 506099
L2C Translations Evicting Data 76968
L2C Data Evicting Data 5295088
L2C Instructions Evicting Instructions 50218
L2C Translations Evicting Instructions 6825
L2C Data Evicting Instructions 493826
L2C Instructions Evicting Translations 6484
L2C Translations Evicting Translations 1323
L2C Data Evicting Translations 75853
L2C Dense regions hint from L2: 0
PSCL5 TOTAL     ACCESS:     143664  HIT:     143664  MISS:          0  HIT %:        100  MISS %:          0   MPKI: 0
PSCL5 LOAD TRANSLATION ACCESS:     121162  HIT:     121162  MISS:          0  HIT %:        100  MISS %:          0   MPKI: 0
PSCL5 TRANSLATION FROM L1D PREFETCHER ACCESS:      22502  HIT:      22502  MISS:          0  HIT %:        100  MISS %:          0   MPKI: 0
PSCL5 PREFETCH  REQUESTED:          0  ISSUED:          0  USEFUL:          0  USELESS:          0
PSCL5 USEFUL LOAD PREFETCHES:          0 PREFETCH ISSUED TO LOWER LEVEL:          0  ACCURACY: -nan
PSCL5 TIMELY PREFETCHES:          0 LATE PREFETCHES: 0 DROPPED PREFETCHES: 0
PSCL5 PREFETCHES SAME FILL-ORIGIN LEVEL: 0 DIFFERENT FILL-ORIGIN LEVEL: 0

PSCL4 TOTAL     ACCESS:     139201  HIT:     138746  MISS:        455  HIT %:    99.6731  MISS %:   0.326865   MPKI: 0.002275
PSCL4 LOAD TRANSLATION ACCESS:     118610  HIT:     118155  MISS:        455  HIT %:    99.6164  MISS %:    0.38361   MPKI: 0.002275
PSCL4 TRANSLATION FROM L1D PREFETCHER ACCESS:      20591  HIT:      20591  MISS:          0  HIT %:        100  MISS %:          0   MPKI: 0
PSCL4 PREFETCH  REQUESTED:          0  ISSUED:          0  USEFUL:          0  USELESS:          0
PSCL4 USEFUL LOAD PREFETCHES:          0 PREFETCH ISSUED TO LOWER LEVEL:          0  ACCURACY: -nan
PSCL4 TIMELY PREFETCHES:          0 LATE PREFETCHES: 0 DROPPED PREFETCHES: 0
PSCL4 PREFETCHES SAME FILL-ORIGIN LEVEL: 0 DIFFERENT FILL-ORIGIN LEVEL: 0

PSCL3 TOTAL     ACCESS:     141219  HIT:     140764  MISS:        455  HIT %:    99.6778  MISS %:   0.322195   MPKI: 0.002275
PSCL3 LOAD TRANSLATION ACCESS:     120076  HIT:     119621  MISS:        455  HIT %:    99.6211  MISS %:   0.378927   MPKI: 0.002275
PSCL3 TRANSLATION FROM L1D PREFETCHER ACCESS:      21143  HIT:      21143  MISS:          0  HIT %:        100  MISS %:          0   MPKI: 0
PSCL3 PREFETCH  REQUESTED:          0  ISSUED:          0  USEFUL:          0  USELESS:          0
PSCL3 USEFUL LOAD PREFETCHES:          0 PREFETCH ISSUED TO LOWER LEVEL:          0  ACCURACY: -nan
PSCL3 TIMELY PREFETCHES:          0 LATE PREFETCHES: 0 DROPPED PREFETCHES: 0
PSCL3 PREFETCHES SAME FILL-ORIGIN LEVEL: 0 DIFFERENT FILL-ORIGIN LEVEL: 0

PSCL2 TOTAL     ACCESS:     132953  HIT:     119925  MISS:      13028  HIT %:     90.201  MISS %:    9.79895   MPKI: 0.06514
PSCL2 LOAD TRANSLATION ACCESS:     121643  HIT:     108615  MISS:      13028  HIT %:      89.29  MISS %:      10.71   MPKI: 0.06514
PSCL2 TRANSLATION FROM L1D PREFETCHER ACCESS:      11310  HIT:      11310  MISS:          0  HIT %:        100  MISS %:          0   MPKI: 0
PSCL2 PREFETCH  REQUESTED:          0  ISSUED:          0  USEFUL:          0  USELESS:          0
PSCL2 USEFUL LOAD PREFETCHES:          0 PREFETCH ISSUED TO LOWER LEVEL:          0  ACCURACY: -nan
PSCL2 TIMELY PREFETCHES:          0 LATE PREFETCHES: 0 DROPPED PREFETCHES: 0
PSCL2 PREFETCHES SAME FILL-ORIGIN LEVEL: 0 DIFFERENT FILL-ORIGIN LEVEL: 0

LLC TOTAL     ACCESS:   10486637  HIT:    4174290  MISS:    6312347  HIT %:    39.8058  MISS %:    60.1942   MPKI: 31.5617
LLC LOAD      ACCESS:    2707034  HIT:    1549063  MISS:    1157971  HIT %:    57.2236  MISS %:    42.7764   MPKI: 5.78986
LLC RFO       ACCESS:    3431381  HIT:     964982  MISS:    2466399  HIT %:    28.1223  MISS %:    71.8777   MPKI: 12.332
LLC PREFETCH  ACCESS:     289122  HIT:      81842  MISS:     207280  HIT %:    28.3071  MISS %:    71.6929   MPKI: 1.0364
AGUS PREFETCH L1 MISS: 0
LLC WRITEBACK ACCESS:    3973984  HIT:    1518951  MISS:    2455033  HIT %:    38.2224  MISS %:    61.7776   MPKI: 12.2752
LLC LOAD TRANSLATION ACCESS:      73313  HIT:      52641  MISS:      20672  HIT %:    71.8031  MISS %:    28.1969   MPKI: 0.10336
LLC TRANSLATION FROM L1D PREFETCHER ACCESS:      11803  HIT:       6811  MISS:       4992  HIT %:    57.7057  MISS %:    42.2943   MPKI: 0.02496
LLC PREFETCH  REQUESTED:          0  ISSUED:          0  USEFUL:        928  USELESS:     211488
LLC USEFUL LOAD PREFETCHES:        928 PREFETCH ISSUED TO LOWER LEVEL:     207280  ACCURACY: 0.447704
LLC TIMELY PREFETCHES:        928 LATE PREFETCHES: 0 DROPPED PREFETCHES: 0
LLC PREFETCHES SAME FILL-ORIGIN LEVEL: 0 DIFFERENT FILL-ORIGIN LEVEL: 0
LLC AVERAGE MISS LATENCY: 134.795 cycles
LLC RQ	ACCESS:    6223562	FORWARD:          0	MERGED:          0	TO_CACHE:    6223531
LLC WQ	ACCESS:    3973984	FORWARD:         31	MERGED:          0	TO_CACHE:    3973984
LLC PQ	ACCESS:     289122	FORWARD:          0	MERGED:          0	TO_CACHE:     289122

LLC Dense regions hint to LLC: 0

RAW hits: 2459414
Loads Generated: 47521126
Loads sent to L1D: 45061714
Stores Generated: 33586965
Stores sent to L1D: 33586965
Major fault: 0 Minor fault: 22230
Allocated PAGES: 22230
Completed 

DRAM Statistics
 CHANNEL 0
 RQ ROW_BUFFER_HIT:    1727050  ROW_BUFFER_MISS:    2129828
 DBUS_CONGESTED:       1643
 WQ ROW_BUFFER_HIT:     558798  ROW_BUFFER_MISS:    2029135  FULL:      56349

 AVG_CONGESTED_CYCLE: 3
 All warmup complete: 2
Channel 0 Bank busy for read cycles: 0
Channel 0 Bank busy for write cycles: 0
Channel 0
Rank 0
0banks busy for read cycles: 175870257
0banks busy for write cycles: 291912
1banks busy for read cycles: 44417245
1banks busy for write cycles: 42055715
2banks busy for read cycles: 16389043
2banks busy for write cycles: 14629936
3banks busy for read cycles: 16227897
3banks busy for write cycles: 6159316
4banks busy for read cycles: 6946093
4banks busy for write cycles: 3810647
5banks busy for read cycles: 5327375
5banks busy for write cycles: 3250502
6banks busy for read cycles: 8559495
6banks busy for write cycles: 3301284
7banks busy for read cycles: 8639791
7banks busy for write cycles: 5794914
8banks busy for read cycles: 14976930
8banks busy for write cycles: 35063514

CPU 0 Branch Prediction Accuracy: 99.9427% MPKI: 0.08834 Average ROB Occupancy at Mispredict: 114.772
Branch types
NOT_BRANCH: 169139651 84.5698%
BRANCH_DIRECT_JUMP: 1705434 0.852717%
BRANCH_INDIRECT: 9970641 4.98532%
BRANCH_CONDITIONAL: 12390178 6.19509%
BRANCH_DIRECT_CALL: 2773558 1.38678%
BRANCH_INDIRECT_CALL: 623355 0.311677%
BRANCH_RETURN: 3396900 1.69845%
BRANCH_OTHER: 0 0%

DRAM PAGES: 1048576
Allocated PAGES: 22230
