
*** ChampSim Multicore Out-of-Order Simulator ***

Warmup Instructions: 50000000
Simulation Instructions: 200000000
Number of CPUs: 1
LLC sets: 2048
LLC ways: 16
Off-chip DRAM Size: 4096 MB Channels: 1 Width: 64-bit Data Rate: 6400 MT/s
CPU 0 runs traces/spec2k17/server_013.champsimtrace.xz
.xz
BTB has LRU replacement policy
ITLB has LRU replacement policy
DTLB has LRU replacement policy
STLB has LRU replacement policy
L1I has LRU replacement policy
L1D has LRU replacement policy
Initialize SRRIP state for L2C
Initialize DRRIP state for LLC
Heartbeat CPU 0 instructions: 10000002 cycles: 2779952 heartbeat IPC: 3.59719 cumulative IPC: 3.59719 (Simulation time: 0 hr 0 min 51 sec) 
Heartbeat CPU 0 instructions: 20000002 cycles: 5555753 heartbeat IPC: 3.60256 cumulative IPC: 3.59987 (Simulation time: 0 hr 1 min 19 sec) 
Heartbeat CPU 0 instructions: 30000000 cycles: 8333814 heartbeat IPC: 3.59963 cumulative IPC: 3.59979 (Simulation time: 0 hr 1 min 48 sec) 
Heartbeat CPU 0 instructions: 40000002 cycles: 11111735 heartbeat IPC: 3.59982 cumulative IPC: 3.5998 (Simulation time: 0 hr 2 min 17 sec) 
Heartbeat CPU 0 instructions: 50000002 cycles: 13889139 heartbeat IPC: 3.60048 cumulative IPC: 3.59994 (Simulation time: 0 hr 2 min 56 sec) 

Warmup complete CPU 0 instructions: 50000002 cycles: 13889139 (Simulation time: 0 hr 2 min 56 sec) 

Heartbeat CPU 0 instructions: 60000003 cycles: 38685217 heartbeat IPC: 0.40329 cumulative IPC: 0.40329 (Simulation time: 0 hr 3 min 42 sec) 
Heartbeat CPU 0 instructions: 70000000 cycles: 63003336 heartbeat IPC: 0.411216 cumulative IPC: 0.407214 (Simulation time: 0 hr 4 min 33 sec) 
Heartbeat CPU 0 instructions: 80000001 cycles: 87063916 heartbeat IPC: 0.415618 cumulative IPC: 0.409977 (Simulation time: 0 hr 5 min 33 sec) 
Heartbeat CPU 0 instructions: 90000001 cycles: 110755700 heartbeat IPC: 0.422087 cumulative IPC: 0.412939 (Simulation time: 0 hr 6 min 34 sec) 
Heartbeat CPU 0 instructions: 100000001 cycles: 134835109 heartbeat IPC: 0.415293 cumulative IPC: 0.413408 (Simulation time: 0 hr 7 min 37 sec) 
*** Reached end of trace for Core: 0 Repeating trace: traces/spec2k17/server_013.champsimtrace.xz
Heartbeat CPU 0 instructions: 110000000 cycles: 158640122 heartbeat IPC: 0.42008 cumulative IPC: 0.414505 (Simulation time: 0 hr 8 min 36 sec) 
Heartbeat CPU 0 instructions: 120000000 cycles: 182449331 heartbeat IPC: 0.420006 cumulative IPC: 0.415282 (Simulation time: 0 hr 9 min 34 sec) 
Heartbeat CPU 0 instructions: 130000003 cycles: 206403096 heartbeat IPC: 0.417471 cumulative IPC: 0.415554 (Simulation time: 0 hr 10 min 32 sec) 
Heartbeat CPU 0 instructions: 140000001 cycles: 230634153 heartbeat IPC: 0.412693 cumulative IPC: 0.415234 (Simulation time: 0 hr 11 min 33 sec) 
Heartbeat CPU 0 instructions: 150000002 cycles: 254576871 heartbeat IPC: 0.417664 cumulative IPC: 0.415476 (Simulation time: 0 hr 12 min 24 sec) 
Heartbeat CPU 0 instructions: 160000000 cycles: 279474218 heartbeat IPC: 0.401649 cumulative IPC: 0.41418 (Simulation time: 0 hr 13 min 10 sec) 
Heartbeat CPU 0 instructions: 170000000 cycles: 303046054 heartbeat IPC: 0.424235 cumulative IPC: 0.415 (Simulation time: 0 hr 14 min 9 sec) 
Heartbeat CPU 0 instructions: 180000002 cycles: 327353471 heartbeat IPC: 0.411397 cumulative IPC: 0.41472 (Simulation time: 0 hr 14 min 53 sec) 
Heartbeat CPU 0 instructions: 190000002 cycles: 351114045 heartbeat IPC: 0.420865 cumulative IPC: 0.415153 (Simulation time: 0 hr 15 min 40 sec) 
Heartbeat CPU 0 instructions: 200000000 cycles: 374875595 heartbeat IPC: 0.420848 cumulative IPC: 0.415528 (Simulation time: 0 hr 16 min 40 sec) 
*** Reached end of trace for Core: 0 Repeating trace: traces/spec2k17/server_013.champsimtrace.xz
Heartbeat CPU 0 instructions: 210000003 cycles: 399187399 heartbeat IPC: 0.411323 cumulative IPC: 0.415263 (Simulation time: 0 hr 17 min 40 sec) 
Heartbeat CPU 0 instructions: 220000000 cycles: 422506132 heartbeat IPC: 0.42884 cumulative IPC: 0.416037 (Simulation time: 0 hr 18 min 44 sec) 
Heartbeat CPU 0 instructions: 230000000 cycles: 446296619 heartbeat IPC: 0.420336 cumulative IPC: 0.416274 (Simulation time: 0 hr 19 min 44 sec) 
Heartbeat CPU 0 instructions: 240000001 cycles: 470001082 heartbeat IPC: 0.421862 cumulative IPC: 0.416564 (Simulation time: 0 hr 20 min 45 sec) 
Heartbeat CPU 0 instructions: 250000002 cycles: 493991021 heartbeat IPC: 0.416841 cumulative IPC: 0.416578 (Simulation time: 0 hr 21 min 43 sec) 
Finished CPU 0 instructions: 200000000 cycles: 480101882 cumulative IPC: 0.416578 (Simulation time: 0 hr 21 min 43 sec) 

ChampSim completed all CPUs

Region of Interest Statistics

CPU 0 cumulative IPC: 0.416578 instructions: 200000000 cycles: 480101882
ITLB TOTAL     ACCESS:   31561232  HIT:   30738536  MISS:     822696  HIT %:    97.3933  MISS %:    2.60667   MPKI: 4.11348
ITLB LOAD TRANSLATION ACCESS:   31561232  HIT:   30738536  MISS:     822696  HIT %:    97.3933  MISS %:    2.60667   MPKI: 4.11348
ITLB PREFETCH  REQUESTED:          0  ISSUED:          0  USEFUL:          0  USELESS:          0
ITLB USEFUL LOAD PREFETCHES:          0 PREFETCH ISSUED TO LOWER LEVEL:          0  ACCURACY: -nan
ITLB TIMELY PREFETCHES:          0 LATE PREFETCHES: 0 DROPPED PREFETCHES: 0
ITLB PREFETCHES SAME FILL-ORIGIN LEVEL: 0 DIFFERENT FILL-ORIGIN LEVEL: 0
ITLB AVERAGE MISS LATENCY: 15.9029 cycles
ITLB RQ	ACCESS:   38404599	FORWARD:          0	MERGED:    6645534	TO_CACHE:   31759065

DTLB TOTAL     ACCESS:   37604653  HIT:   35052801  MISS:    2551852  HIT %:     93.214  MISS %:      6.786   MPKI: 12.7593
DTLB LOAD TRANSLATION ACCESS:   37604653  HIT:   35052801  MISS:    2551852  HIT %:     93.214  MISS %:      6.786   MPKI: 12.7593
DTLB PREFETCH  REQUESTED:          0  ISSUED:          0  USEFUL:          0  USELESS:          0
DTLB USEFUL LOAD PREFETCHES:          0 PREFETCH ISSUED TO LOWER LEVEL:          0  ACCURACY: -nan
DTLB TIMELY PREFETCHES:          0 LATE PREFETCHES: 0 DROPPED PREFETCHES: 0
DTLB PREFETCHES SAME FILL-ORIGIN LEVEL: 0 DIFFERENT FILL-ORIGIN LEVEL: 0
DTLB AVERAGE MISS LATENCY: 13.3755 cycles
DTLB RQ	ACCESS:   48012652	FORWARD:          0	MERGED:   10267687	TO_CACHE:   37744965

STLB TOTAL     ACCESS:   10576693  HIT:   10104805  MISS:     471888  HIT %:    95.5384  MISS %:    4.46158   MPKI: 2.35944
STLB LOAD TRANSLATION ACCESS:    3374548  HIT:    2915230  MISS:     459318  HIT %:    86.3888  MISS %:    13.6112   MPKI: 2.29659
STLB TRANSLATION FROM L1D PREFETCHER ACCESS:    7202145  HIT:    7189575  MISS:      12570  HIT %:    99.8255  MISS %:   0.174531   MPKI: 0.06285
STLB PREFETCH  REQUESTED:          0  ISSUED:          0  USEFUL:      10295  USELESS:       2269
STLB USEFUL LOAD PREFETCHES:      10295 PREFETCH ISSUED TO LOWER LEVEL:          0  ACCURACY: inf
STLB TIMELY PREFETCHES:      10295 LATE PREFETCHES: 3076 DROPPED PREFETCHES: 166648
STLB PREFETCHES SAME FILL-ORIGIN LEVEL: 0 DIFFERENT FILL-ORIGIN LEVEL: 0
STLB AVERAGE MISS LATENCY: 39.1034 cycles
STLB RQ	ACCESS:   12277929	FORWARD:          0	MERGED:    1530213	TO_CACHE:   10747716

STLB Hit, L1D data hit: 0
STLB Hit, L2C data hit: 0
STLB Hit, LLC data hit: 0
STLB Hit, LLC data miss: 0
STLB STLB hints to L2: 0
L1D TOTAL     ACCESS:   56007149  HIT:   53372818  MISS:    2634331  HIT %:    95.2964  MISS %:    4.70356   MPKI: 13.1717
L1D LOAD      ACCESS:   27952696  HIT:   25873729  MISS:    2078967  HIT %:    92.5626  MISS %:    7.43745   MPKI: 10.3948
L1D RFO       ACCESS:   19513199  HIT:   19165272  MISS:     347927  HIT %:     98.217  MISS %:    1.78303   MPKI: 1.73964
L1D PREFETCH  ACCESS:    8541254  HIT:    8333817  MISS:     207437  HIT %:    97.5714  MISS %:    2.42865   MPKI: 1.03719
AGUS PREFETCH L1 MISS: 0
L1D PREFETCH  REQUESTED:   20075560  ISSUED:   20075313  USEFUL:     121864  USELESS:      85532
L1D USEFUL LOAD PREFETCHES:     121864 PREFETCH ISSUED TO LOWER LEVEL:     261724  ACCURACY: 46.562
L1D TIMELY PREFETCHES:     121864 LATE PREFETCHES: 54051 DROPPED PREFETCHES: 206307
L1D PREFETCHES SAME FILL-ORIGIN LEVEL: 261724 DIFFERENT FILL-ORIGIN LEVEL: 0
L1D AVERAGE MISS LATENCY: 6.77402e+06 cycles
L1D RQ	ACCESS:   42105827	FORWARD:          0	MERGED:   13830567	TO_CACHE:   28090900
L1D WQ	ACCESS:   20246575	FORWARD:     219413	MERGED:     324823	TO_CACHE:   19921752
L1D PQ	ACCESS:   11171933	FORWARD:          0	MERGED:    2233500	TO_CACHE:    8903380

L1D UNIQUE REGIONS ACCESSED: 0
L1D REGIONS CONFLICTS: 0
L1D Cross Page Prefetch Requests: 7492201
L1D Same Page Prefetch Requests: 5418560
L1D ROI Sum of L1D PQ occupancy: 130099795
L1D PREFETCHES PUSHED FROM L2C: 0
L1I TOTAL     ACCESS:   36707274  HIT:   31452792  MISS:    5254482  HIT %:    85.6854  MISS %:    14.3146   MPKI: 26.2724
L1I LOAD      ACCESS:   36707274  HIT:   31452792  MISS:    5254482  HIT %:    85.6854  MISS %:    14.3146   MPKI: 26.2724
L1I PREFETCH  REQUESTED:          0  ISSUED:          0  USEFUL:          0  USELESS:          0
L1I USEFUL LOAD PREFETCHES:          0 PREFETCH ISSUED TO LOWER LEVEL:          0  ACCURACY: -nan
L1I TIMELY PREFETCHES:          0 LATE PREFETCHES: 0 DROPPED PREFETCHES: 0
L1I PREFETCHES SAME FILL-ORIGIN LEVEL: 0 DIFFERENT FILL-ORIGIN LEVEL: 0
L1I AVERAGE MISS LATENCY: 27.9088 cycles
L1I RQ	ACCESS:   57195315	FORWARD:          0	MERGED:   18790716	TO_CACHE:   38404599

BTB TOTAL     ACCESS:   22787438  HIT:   17577150  MISS:    5210288  HIT %:    77.1353  MISS %:    22.8647   MPKI: 26.0514
BTB BRANCH_DIRECT_JUMP	ACCESS:    1802124  HIT:    1488715  MISS:     313409
BTB BRANCH_INDIRECT	ACCESS:    9657285  HIT:    7208240  MISS:    2449045
BTB BRANCH_CONDITIONAL	ACCESS:    4724019  HIT:    4227730  MISS:     496289
BTB BRANCH_DIRECT_CALL	ACCESS:    2593019  HIT:    1983731  MISS:     609288
BTB BRANCH_INDIRECT_CALL	ACCESS:     705122  HIT:     643336  MISS:      61786
BTB BRANCH_RETURN	ACCESS:    3305869  HIT:    2025398  MISS:    1280471
BTB BRANCH_OTHER ACCESS:          0  HIT:          0  MISS:          0

L2C TOTAL     ACCESS:    9719400  HIT:    5700813  MISS:    4018587  HIT %:     58.654  MISS %:     41.346   MPKI: 20.0929
L2C LOAD      ACCESS:    7279330  HIT:    3814608  MISS:    3464722  HIT %:    52.4033  MISS %:    47.5967   MPKI: 17.3236
L2C DATA LOAD MPKI: 5.54266
L2C INSTRUCTION LOAD MPKI: 11.781
L2C RFO       ACCESS:     347688  HIT:     181064  MISS:     166624  HIT %:    52.0766  MISS %:    47.9234   MPKI: 0.83312
L2C PREFETCH  ACCESS:     261712  HIT:     165794  MISS:      95918  HIT %:    63.3498  MISS %:    36.6502   MPKI: 0.47959
AGUS PREFETCH L1 MISS: 0
L2C DATA PREFETCH MPKI: 0.47959
L2C INSTRUCTION PREFETCH MPKI: 0
L2C WRITEBACK ACCESS:    1008836  HIT:     954808  MISS:      54028  HIT %:    94.6445  MISS %:    5.35548   MPKI: 0.27014
L2C LOAD TRANSLATION ACCESS:     576160  HIT:     368387  MISS:     207773  HIT %:    63.9383  MISS %:    36.0617   MPKI: 1.03886
L2C TRANSLATION FROM L1D PREFETCHER ACCESS:     245674  HIT:     216152  MISS:      29522  HIT %:    87.9833  MISS %:    12.0167   MPKI: 0.14761
L2C PREFETCH  REQUESTED:          0  ISSUED:          0  USEFUL:      24123  USELESS:     101113
L2C USEFUL LOAD PREFETCHES:      24123 PREFETCH ISSUED TO LOWER LEVEL:      95918  ACCURACY: 25.1496
L2C TIMELY PREFETCHES:      24123 LATE PREFETCHES: 0 DROPPED PREFETCHES: 0
L2C PREFETCHES SAME FILL-ORIGIN LEVEL: 0 DIFFERENT FILL-ORIGIN LEVEL: 0
L2C AVERAGE MISS LATENCY: 40.8523 cycles
L2C RQ	ACCESS:    8448923	FORWARD:          0	MERGED:          0	TO_CACHE:    8448852
L2C WQ	ACCESS:    1008836	FORWARD:         83	MERGED:          0	TO_CACHE:    1008836
L2C PQ	ACCESS:     261724	FORWARD:          0	MERGED:          0	TO_CACHE:     261712

L2C Instructions Evicting Data 831858
L2C Translations Evicting Data 86067
L2C Data Evicting Data 487833
L2C Instructions Evicting Instructions 1387404
L2C Translations Evicting Instructions 137619
L2C Data Evicting Instructions 799739
L2C Instructions Evicting Translations 136928
L2C Translations Evicting Translations 13609
L2C Data Evicting Translations 83502
L2C Dense regions hint from L2: 0
PSCL5 TOTAL     ACCESS:     627884  HIT:     627884  MISS:          0  HIT %:        100  MISS %:          0   MPKI: 0
PSCL5 LOAD TRANSLATION ACCESS:     456244  HIT:     456244  MISS:          0  HIT %:        100  MISS %:          0   MPKI: 0
PSCL5 TRANSLATION FROM L1D PREFETCHER ACCESS:     171640  HIT:     171640  MISS:          0  HIT %:        100  MISS %:          0   MPKI: 0
PSCL5 PREFETCH  REQUESTED:          0  ISSUED:          0  USEFUL:          0  USELESS:          0
PSCL5 USEFUL LOAD PREFETCHES:          0 PREFETCH ISSUED TO LOWER LEVEL:          0  ACCURACY: -nan
PSCL5 TIMELY PREFETCHES:          0 LATE PREFETCHES: 0 DROPPED PREFETCHES: 0
PSCL5 PREFETCHES SAME FILL-ORIGIN LEVEL: 0 DIFFERENT FILL-ORIGIN LEVEL: 0

PSCL4 TOTAL     ACCESS:     592924  HIT:     591549  MISS:       1375  HIT %:    99.7681  MISS %:   0.231902   MPKI: 0.006875
PSCL4 LOAD TRANSLATION ACCESS:     439584  HIT:     438209  MISS:       1375  HIT %:    99.6872  MISS %:   0.312796   MPKI: 0.006875
PSCL4 TRANSLATION FROM L1D PREFETCHER ACCESS:     153340  HIT:     153340  MISS:          0  HIT %:        100  MISS %:          0   MPKI: 0
PSCL4 PREFETCH  REQUESTED:          0  ISSUED:          0  USEFUL:          0  USELESS:          0
PSCL4 USEFUL LOAD PREFETCHES:          0 PREFETCH ISSUED TO LOWER LEVEL:          0  ACCURACY: -nan
PSCL4 TIMELY PREFETCHES:          0 LATE PREFETCHES: 0 DROPPED PREFETCHES: 0
PSCL4 PREFETCHES SAME FILL-ORIGIN LEVEL: 0 DIFFERENT FILL-ORIGIN LEVEL: 0

PSCL3 TOTAL     ACCESS:     606826  HIT:     602875  MISS:       3951  HIT %:    99.3489  MISS %:   0.651093   MPKI: 0.019755
PSCL3 LOAD TRANSLATION ACCESS:     452961  HIT:     449010  MISS:       3951  HIT %:    99.1277  MISS %:   0.872261   MPKI: 0.019755
PSCL3 TRANSLATION FROM L1D PREFETCHER ACCESS:     153865  HIT:     153865  MISS:          0  HIT %:        100  MISS %:          0   MPKI: 0
PSCL3 PREFETCH  REQUESTED:          0  ISSUED:          0  USEFUL:          0  USELESS:          0
PSCL3 USEFUL LOAD PREFETCHES:          0 PREFETCH ISSUED TO LOWER LEVEL:          0  ACCURACY: -nan
PSCL3 TIMELY PREFETCHES:          0 LATE PREFETCHES: 0 DROPPED PREFETCHES: 0
PSCL3 PREFETCHES SAME FILL-ORIGIN LEVEL: 0 DIFFERENT FILL-ORIGIN LEVEL: 0

PSCL2 TOTAL     ACCESS:     505217  HIT:     383335  MISS:     121882  HIT %:    75.8753  MISS %:    24.1247   MPKI: 0.60941
PSCL2 LOAD TRANSLATION ACCESS:     463318  HIT:     341436  MISS:     121882  HIT %:    73.6937  MISS %:    26.3063   MPKI: 0.60941
PSCL2 TRANSLATION FROM L1D PREFETCHER ACCESS:      41899  HIT:      41899  MISS:          0  HIT %:        100  MISS %:          0   MPKI: 0
PSCL2 PREFETCH  REQUESTED:          0  ISSUED:          0  USEFUL:          0  USELESS:          0
PSCL2 USEFUL LOAD PREFETCHES:          0 PREFETCH ISSUED TO LOWER LEVEL:          0  ACCURACY: -nan
PSCL2 TIMELY PREFETCHES:          0 LATE PREFETCHES: 0 DROPPED PREFETCHES: 0
PSCL2 PREFETCHES SAME FILL-ORIGIN LEVEL: 0 DIFFERENT FILL-ORIGIN LEVEL: 0

LLC TOTAL     ACCESS:    4435419  HIT:    4149715  MISS:     285704  HIT %:    93.5586  MISS %:    6.44142   MPKI: 1.42852
LLC LOAD      ACCESS:    3464721  HIT:    3243509  MISS:     221212  HIT %:    93.6153  MISS %:     6.3847   MPKI: 1.10606
LLC RFO       ACCESS:     166624  HIT:     120198  MISS:      46426  HIT %:    72.1373  MISS %:    27.8627   MPKI: 0.23213
LLC PREFETCH  ACCESS:      95918  HIT:      86131  MISS:       9787  HIT %:    89.7965  MISS %:    10.2035   MPKI: 0.048935
AGUS PREFETCH L1 MISS: 0
LLC WRITEBACK ACCESS:     470861  HIT:     468584  MISS:       2277  HIT %:    99.5164  MISS %:   0.483582   MPKI: 0.011385
LLC LOAD TRANSLATION ACCESS:     207773  HIT:     203572  MISS:       4201  HIT %:    97.9781  MISS %:    2.02192   MPKI: 0.021005
LLC TRANSLATION FROM L1D PREFETCHER ACCESS:      29522  HIT:      27721  MISS:       1801  HIT %:    93.8995  MISS %:    6.10054   MPKI: 0.009005
LLC PREFETCH  REQUESTED:          0  ISSUED:          0  USEFUL:       2219  USELESS:       8978
LLC USEFUL LOAD PREFETCHES:       2219 PREFETCH ISSUED TO LOWER LEVEL:       9787  ACCURACY: 22.6729
LLC TIMELY PREFETCHES:       2219 LATE PREFETCHES: 0 DROPPED PREFETCHES: 0
LLC PREFETCHES SAME FILL-ORIGIN LEVEL: 0 DIFFERENT FILL-ORIGIN LEVEL: 0
LLC AVERAGE MISS LATENCY: 158.189 cycles
LLC RQ	ACCESS:    3868641	FORWARD:          0	MERGED:          0	TO_CACHE:    3868640
LLC WQ	ACCESS:     470861	FORWARD:          1	MERGED:          0	TO_CACHE:     470861
LLC PQ	ACCESS:      95918	FORWARD:          0	MERGED:          0	TO_CACHE:      95918

LLC Dense regions hint to LLC: 0

RAW hits: 2711927
Loads Generated: 44817758
Loads sent to L1D: 42105827
Stores Generated: 20246570
Stores sent to L1D: 20246575
Major fault: 0 Minor fault: 6553
Allocated PAGES: 6553
Completed 

DRAM Statistics
 CHANNEL 0
 RQ ROW_BUFFER_HIT:      40976  ROW_BUFFER_MISS:     242450
 DBUS_CONGESTED:         88
 WQ ROW_BUFFER_HIT:      23077  ROW_BUFFER_MISS:     196075  FULL:          0

 AVG_CONGESTED_CYCLE: 4
 All warmup complete: 2
Channel 0 Bank busy for read cycles: 0
Channel 0 Bank busy for write cycles: 0
Channel 0
Rank 0
0banks busy for read cycles: 422384615
0banks busy for write cycles: 136311
1banks busy for read cycles: 27764434
1banks busy for write cycles: 18991732
2banks busy for read cycles: 3470191
2banks busy for write cycles: 3990811
3banks busy for read cycles: 501691
3banks busy for write cycles: 1140360
4banks busy for read cycles: 204135
4banks busy for write cycles: 483405
5banks busy for read cycles: 81988
5banks busy for write cycles: 245502
6banks busy for read cycles: 43420
6banks busy for write cycles: 163824
7banks busy for read cycles: 33026
7banks busy for write cycles: 164581
8banks busy for read cycles: 61897
8banks busy for write cycles: 239960

CPU 0 Branch Prediction Accuracy: 99.7599% MPKI: 0.43378 Average ROB Occupancy at Mispredict: 30.2546
Branch types
NOT_BRANCH: 163865511 81.9328%
BRANCH_DIRECT_JUMP: 1802124 0.901062%
BRANCH_INDIRECT: 9657285 4.82864%
BRANCH_CONDITIONAL: 18071067 9.03553%
BRANCH_DIRECT_CALL: 2593019 1.29651%
BRANCH_INDIRECT_CALL: 705122 0.352561%
BRANCH_RETURN: 3305869 1.65293%
BRANCH_OTHER: 0 0%

DRAM PAGES: 1048576
Allocated PAGES: 6553
