
*** ChampSim Multicore Out-of-Order Simulator ***

Warmup Instructions: 50000000
Simulation Instructions: 200000000
Number of CPUs: 1
LLC sets: 2048
LLC ways: 16
Off-chip DRAM Size: 4096 MB Channels: 1 Width: 64-bit Data Rate: 6400 MT/s
CPU 0 runs traces/spec2k17/server_024.champsimtrace.xz
.xz
BTB has LRU replacement policy
ITLB has LRU replacement policy
DTLB has LRU replacement policy
STLB has LRU replacement policy
L1I has LRU replacement policy
L1D has LRU replacement policy
Initialize SRRIP state for L2C
Initialize DRRIP state for LLC
Heartbeat CPU 0 instructions: 10000001 cycles: 2812234 heartbeat IPC: 3.55589 cumulative IPC: 3.55589 (Simulation time: 0 hr 0 min 42 sec) 
Heartbeat CPU 0 instructions: 20000002 cycles: 5618361 heartbeat IPC: 3.56363 cumulative IPC: 3.55976 (Simulation time: 0 hr 1 min 20 sec) 
Heartbeat CPU 0 instructions: 30000002 cycles: 8435843 heartbeat IPC: 3.54927 cumulative IPC: 3.55625 (Simulation time: 0 hr 1 min 57 sec) 
Heartbeat CPU 0 instructions: 40000001 cycles: 11247425 heartbeat IPC: 3.55672 cumulative IPC: 3.55637 (Simulation time: 0 hr 2 min 32 sec) 
Heartbeat CPU 0 instructions: 50000003 cycles: 14054694 heartbeat IPC: 3.56218 cumulative IPC: 3.55753 (Simulation time: 0 hr 3 min 3 sec) 

Warmup complete CPU 0 instructions: 50000003 cycles: 14054694 (Simulation time: 0 hr 3 min 3 sec) 

Heartbeat CPU 0 instructions: 60000000 cycles: 43584422 heartbeat IPC: 0.338642 cumulative IPC: 0.338642 (Simulation time: 0 hr 3 min 59 sec) 
Heartbeat CPU 0 instructions: 70000000 cycles: 73733421 heartbeat IPC: 0.331686 cumulative IPC: 0.335128 (Simulation time: 0 hr 5 min 0 sec) 
*** Reached end of trace for Core: 0 Repeating trace: traces/spec2k17/server_024.champsimtrace.xz
Heartbeat CPU 0 instructions: 80000001 cycles: 103541655 heartbeat IPC: 0.335478 cumulative IPC: 0.335244 (Simulation time: 0 hr 6 min 1 sec) 
Heartbeat CPU 0 instructions: 90000003 cycles: 133414040 heartbeat IPC: 0.334757 cumulative IPC: 0.335122 (Simulation time: 0 hr 7 min 3 sec) 
Heartbeat CPU 0 instructions: 100000000 cycles: 163088768 heartbeat IPC: 0.336987 cumulative IPC: 0.335494 (Simulation time: 0 hr 7 min 54 sec) 
Heartbeat CPU 0 instructions: 110000000 cycles: 193583781 heartbeat IPC: 0.327922 cumulative IPC: 0.334208 (Simulation time: 0 hr 8 min 53 sec) 
Heartbeat CPU 0 instructions: 120000000 cycles: 223622089 heartbeat IPC: 0.332908 cumulative IPC: 0.334021 (Simulation time: 0 hr 10 min 1 sec) 
Heartbeat CPU 0 instructions: 130000000 cycles: 252709959 heartbeat IPC: 0.343786 cumulative IPC: 0.335212 (Simulation time: 0 hr 11 min 10 sec) 
Heartbeat CPU 0 instructions: 140000002 cycles: 282327720 heartbeat IPC: 0.337635 cumulative IPC: 0.335479 (Simulation time: 0 hr 12 min 18 sec) 
Heartbeat CPU 0 instructions: 150000001 cycles: 312067714 heartbeat IPC: 0.336248 cumulative IPC: 0.335556 (Simulation time: 0 hr 13 min 17 sec) 
*** Reached end of trace for Core: 0 Repeating trace: traces/spec2k17/server_024.champsimtrace.xz
Heartbeat CPU 0 instructions: 160000000 cycles: 341589945 heartbeat IPC: 0.338728 cumulative IPC: 0.335842 (Simulation time: 0 hr 14 min 27 sec) 
Heartbeat CPU 0 instructions: 170000000 cycles: 371319471 heartbeat IPC: 0.336366 cumulative IPC: 0.335885 (Simulation time: 0 hr 15 min 32 sec) 
Heartbeat CPU 0 instructions: 180000000 cycles: 401214136 heartbeat IPC: 0.334508 cumulative IPC: 0.335779 (Simulation time: 0 hr 16 min 26 sec) 
Heartbeat CPU 0 instructions: 190000001 cycles: 431450650 heartbeat IPC: 0.330726 cumulative IPC: 0.335413 (Simulation time: 0 hr 17 min 15 sec) 
Heartbeat CPU 0 instructions: 200000000 cycles: 461093702 heartbeat IPC: 0.337347 cumulative IPC: 0.335541 (Simulation time: 0 hr 18 min 5 sec) 
Heartbeat CPU 0 instructions: 210000000 cycles: 490108648 heartbeat IPC: 0.34465 cumulative IPC: 0.336096 (Simulation time: 0 hr 19 min 1 sec) 
Heartbeat CPU 0 instructions: 220000000 cycles: 519904030 heartbeat IPC: 0.335622 cumulative IPC: 0.336068 (Simulation time: 0 hr 19 min 53 sec) 
Heartbeat CPU 0 instructions: 230000000 cycles: 549266547 heartbeat IPC: 0.34057 cumulative IPC: 0.336315 (Simulation time: 0 hr 20 min 47 sec) 
*** Reached end of trace for Core: 0 Repeating trace: traces/spec2k17/server_024.champsimtrace.xz
Heartbeat CPU 0 instructions: 240000002 cycles: 578806529 heartbeat IPC: 0.338524 cumulative IPC: 0.336431 (Simulation time: 0 hr 21 min 37 sec) 
Heartbeat CPU 0 instructions: 250000000 cycles: 608666043 heartbeat IPC: 0.334902 cumulative IPC: 0.336354 (Simulation time: 0 hr 22 min 40 sec) 
Finished CPU 0 instructions: 200000001 cycles: 594611350 cumulative IPC: 0.336354 (Simulation time: 0 hr 22 min 40 sec) 

ChampSim completed all CPUs

Region of Interest Statistics

CPU 0 cumulative IPC: 0.336354 instructions: 200000001 cycles: 594611350
ITLB TOTAL     ACCESS:   34435844  HIT:   32607892  MISS:    1827952  HIT %:    94.6917  MISS %:    5.30828   MPKI: 9.13976
ITLB LOAD TRANSLATION ACCESS:   34435844  HIT:   32607892  MISS:    1827952  HIT %:    94.6917  MISS %:    5.30828   MPKI: 9.13976
ITLB PREFETCH  REQUESTED:          0  ISSUED:          0  USEFUL:          0  USELESS:          0
ITLB USEFUL LOAD PREFETCHES:          0 PREFETCH ISSUED TO LOWER LEVEL:          0  ACCURACY: -nan
ITLB TIMELY PREFETCHES:          0 LATE PREFETCHES: 0 DROPPED PREFETCHES: 0
ITLB PREFETCHES SAME FILL-ORIGIN LEVEL: 0 DIFFERENT FILL-ORIGIN LEVEL: 0
ITLB AVERAGE MISS LATENCY: 9.10175 cycles
ITLB RQ	ACCESS:   40226169	FORWARD:          0	MERGED:    5351745	TO_CACHE:   34874424

DTLB TOTAL     ACCESS:   45341359  HIT:   43551583  MISS:    1789776  HIT %:    96.0527  MISS %:    3.94734   MPKI: 8.94888
DTLB LOAD TRANSLATION ACCESS:   45341359  HIT:   43551583  MISS:    1789776  HIT %:    96.0527  MISS %:    3.94734   MPKI: 8.94888
DTLB PREFETCH  REQUESTED:          0  ISSUED:          0  USEFUL:          0  USELESS:          0
DTLB USEFUL LOAD PREFETCHES:          0 PREFETCH ISSUED TO LOWER LEVEL:          0  ACCURACY: -nan
DTLB TIMELY PREFETCHES:          0 LATE PREFETCHES: 0 DROPPED PREFETCHES: 0
DTLB PREFETCHES SAME FILL-ORIGIN LEVEL: 0 DIFFERENT FILL-ORIGIN LEVEL: 0
DTLB AVERAGE MISS LATENCY: 8.6042 cycles
DTLB RQ	ACCESS:   59835907	FORWARD:          0	MERGED:   14427683	TO_CACHE:   45408224

STLB TOTAL     ACCESS:   17989600  HIT:   17974363  MISS:      15237  HIT %:    99.9153  MISS %:  0.0846989   MPKI: 0.076185
STLB LOAD TRANSLATION ACCESS:    3617728  HIT:    3605181  MISS:      12547  HIT %:    99.6532  MISS %:    0.34682   MPKI: 0.062735
STLB TRANSLATION FROM L1D PREFETCHER ACCESS:   14371872  HIT:   14369182  MISS:       2690  HIT %:    99.9813  MISS %:  0.0187171   MPKI: 0.01345
STLB PREFETCH  REQUESTED:          0  ISSUED:          0  USEFUL:       1893  USELESS:        767
STLB USEFUL LOAD PREFETCHES:       1893 PREFETCH ISSUED TO LOWER LEVEL:          0  ACCURACY: inf
STLB TIMELY PREFETCHES:       1893 LATE PREFETCHES: 177 DROPPED PREFETCHES: 268420
STLB PREFETCHES SAME FILL-ORIGIN LEVEL: 0 DIFFERENT FILL-ORIGIN LEVEL: 0
STLB AVERAGE MISS LATENCY: 49.2844 cycles
STLB RQ	ACCESS:   20629879	FORWARD:          0	MERGED:    2371459	TO_CACHE:   18258420

STLB Hit, L1D data hit: 0
STLB Hit, L2C data hit: 0
STLB Hit, LLC data hit: 0
STLB Hit, LLC data miss: 0
STLB STLB hints to L2: 0
L1D TOTAL     ACCESS:   74021904  HIT:   69809913  MISS:    4211991  HIT %:    94.3098  MISS %:     5.6902   MPKI: 21.06
L1D LOAD      ACCESS:   33590670  HIT:   31342061  MISS:    2248609  HIT %:    93.3059  MISS %:    6.69415   MPKI: 11.243
L1D RFO       ACCESS:   24518185  HIT:   23480467  MISS:    1037718  HIT %:    95.7676  MISS %:    4.23244   MPKI: 5.18859
L1D PREFETCH  ACCESS:   15913049  HIT:   14987385  MISS:     925664  HIT %:     94.183  MISS %:    5.81701   MPKI: 4.62832
AGUS PREFETCH L1 MISS: 0
L1D PREFETCH  REQUESTED:   36740627  ISSUED:   36740545  USEFUL:     616335  USELESS:     309285
L1D USEFUL LOAD PREFETCHES:     616335 PREFETCH ISSUED TO LOWER LEVEL:    1288232  ACCURACY: 47.8435
L1D TIMELY PREFETCHES:     616335 LATE PREFETCHES: 359760 DROPPED PREFETCHES: 317385
L1D PREFETCHES SAME FILL-ORIGIN LEVEL: 1288232 DIFFERENT FILL-ORIGIN LEVEL: 0
L1D AVERAGE MISS LATENCY: 3.17399e+07 cycles
L1D RQ	ACCESS:   46995482	FORWARD:          0	MERGED:   13012128	TO_CACHE:   33688565
L1D WQ	ACCESS:   26317199	FORWARD:     330361	MERGED:     169857	TO_CACHE:   26147342
L1D PQ	ACCESS:   19728394	FORWARD:          0	MERGED:    2680671	TO_CACHE:   17012151

L1D UNIQUE REGIONS ACCESSED: 0
L1D REGIONS CONFLICTS: 0
L1D Cross Page Prefetch Requests: 13079581
L1D Same Page Prefetch Requests: 7665215
L1D ROI Sum of L1D PQ occupancy: 241491934
L1D PREFETCHES PUSHED FROM L2C: 0
L1I TOTAL     ACCESS:   38815216  HIT:   29199548  MISS:    9615668  HIT %:    75.2271  MISS %:    24.7729   MPKI: 48.0783
L1I LOAD      ACCESS:   38815216  HIT:   29199548  MISS:    9615668  HIT %:    75.2271  MISS %:    24.7729   MPKI: 48.0783
L1I PREFETCH  REQUESTED:          0  ISSUED:          0  USEFUL:          0  USELESS:          0
L1I USEFUL LOAD PREFETCHES:          0 PREFETCH ISSUED TO LOWER LEVEL:          0  ACCURACY: -nan
L1I TIMELY PREFETCHES:          0 LATE PREFETCHES: 0 DROPPED PREFETCHES: 0
L1I PREFETCHES SAME FILL-ORIGIN LEVEL: 0 DIFFERENT FILL-ORIGIN LEVEL: 0
L1I AVERAGE MISS LATENCY: 16.9636 cycles
L1I RQ	ACCESS:   57801583	FORWARD:          0	MERGED:   17575414	TO_CACHE:   40226169

BTB TOTAL     ACCESS:   30276049  HIT:   18932725  MISS:   11343324  HIT %:    62.5337  MISS %:    37.4663   MPKI: 56.7166
BTB BRANCH_DIRECT_JUMP	ACCESS:    2183763  HIT:    1387870  MISS:     795893
BTB BRANCH_INDIRECT	ACCESS:   11358219  HIT:    7100300  MISS:    4257919
BTB BRANCH_CONDITIONAL	ACCESS:    8733205  HIT:    7588000  MISS:    1145205
BTB BRANCH_DIRECT_CALL	ACCESS:    3381427  HIT:    1525545  MISS:    1855882
BTB BRANCH_INDIRECT_CALL	ACCESS:     619012  HIT:     244340  MISS:     374672
BTB BRANCH_RETURN	ACCESS:    4000423  HIT:    1086670  MISS:    2913753
BTB BRANCH_OTHER ACCESS:          0  HIT:          0  MISS:          0

L2C TOTAL     ACCESS:   16061463  HIT:   14288487  MISS:    1772976  HIT %:    88.9613  MISS %:    11.0387   MPKI: 8.86488
L2C LOAD      ACCESS:   11504477  HIT:   10252711  MISS:    1251766  HIT %:    89.1193  MISS %:    10.8807   MPKI: 6.25883
L2C DATA LOAD MPKI: 1.75244
L2C INSTRUCTION LOAD MPKI: 4.50638
L2C RFO       ACCESS:    1034899  HIT:     791418  MISS:     243481  HIT %:     76.473  MISS %:     23.527   MPKI: 1.2174
L2C PREFETCH  ACCESS:    1288186  HIT:    1116171  MISS:     172015  HIT %:    86.6467  MISS %:    13.3533   MPKI: 0.860075
AGUS PREFETCH L1 MISS: 0
L2C DATA PREFETCH MPKI: 0.860075
L2C INSTRUCTION PREFETCH MPKI: 0
L2C WRITEBACK ACCESS:    1842696  HIT:    1779456  MISS:      63240  HIT %:    96.5681  MISS %:    3.43193   MPKI: 0.3162
L2C LOAD TRANSLATION ACCESS:      13675  HIT:       5559  MISS:       8116  HIT %:    40.6508  MISS %:    59.3492   MPKI: 0.04058
L2C TRANSLATION FROM L1D PREFETCHER ACCESS:     377530  HIT:     343172  MISS:      34358  HIT %:    90.8993  MISS %:    9.10073   MPKI: 0.17179
L2C PREFETCH  REQUESTED:          0  ISSUED:          0  USEFUL:      38460  USELESS:     167696
L2C USEFUL LOAD PREFETCHES:      38460 PREFETCH ISSUED TO LOWER LEVEL:     172015  ACCURACY: 22.3585
L2C TIMELY PREFETCHES:      38460 LATE PREFETCHES: 0 DROPPED PREFETCHES: 0
L2C PREFETCHES SAME FILL-ORIGIN LEVEL: 0 DIFFERENT FILL-ORIGIN LEVEL: 0
L2C AVERAGE MISS LATENCY: 42.5903 cycles
L2C RQ	ACCESS:   12930632	FORWARD:          0	MERGED:          0	TO_CACHE:   12930581
L2C WQ	ACCESS:    1842696	FORWARD:         97	MERGED:          0	TO_CACHE:    1842696
L2C PQ	ACCESS:    1288232	FORWARD:          0	MERGED:          0	TO_CACHE:    1288186

L2C Instructions Evicting Data 381028
L2C Translations Evicting Data 23551
L2C Data Evicting Data 397654
L2C Instructions Evicting Instructions 502492
L2C Translations Evicting Instructions 17675
L2C Data Evicting Instructions 345883
L2C Instructions Evicting Translations 17757
L2C Translations Evicting Translations 1248
L2C Data Evicting Translations 22448
L2C Dense regions hint from L2: 0
PSCL5 TOTAL     ACCESS:     282398  HIT:     282398  MISS:          0  HIT %:        100  MISS %:          0   MPKI: 0
PSCL5 LOAD TRANSLATION ACCESS:      12376  HIT:      12376  MISS:          0  HIT %:        100  MISS %:          0   MPKI: 0
PSCL5 TRANSLATION FROM L1D PREFETCHER ACCESS:     270022  HIT:     270022  MISS:          0  HIT %:        100  MISS %:          0   MPKI: 0
PSCL5 PREFETCH  REQUESTED:          0  ISSUED:          0  USEFUL:          0  USELESS:          0
PSCL5 USEFUL LOAD PREFETCHES:          0 PREFETCH ISSUED TO LOWER LEVEL:          0  ACCURACY: -nan
PSCL5 TIMELY PREFETCHES:          0 LATE PREFETCHES: 0 DROPPED PREFETCHES: 0
PSCL5 PREFETCHES SAME FILL-ORIGIN LEVEL: 0 DIFFERENT FILL-ORIGIN LEVEL: 0

PSCL4 TOTAL     ACCESS:     230443  HIT:     230398  MISS:         45  HIT %:    99.9805  MISS %:  0.0195276   MPKI: 0.000225
PSCL4 LOAD TRANSLATION ACCESS:      11679  HIT:      11634  MISS:         45  HIT %:    99.6147  MISS %:   0.385307   MPKI: 0.000225
PSCL4 TRANSLATION FROM L1D PREFETCHER ACCESS:     218764  HIT:     218764  MISS:          0  HIT %:        100  MISS %:          0   MPKI: 0
PSCL4 PREFETCH  REQUESTED:          0  ISSUED:          0  USEFUL:          0  USELESS:          0
PSCL4 USEFUL LOAD PREFETCHES:          0 PREFETCH ISSUED TO LOWER LEVEL:          0  ACCURACY: -nan
PSCL4 TIMELY PREFETCHES:          0 LATE PREFETCHES: 0 DROPPED PREFETCHES: 0
PSCL4 PREFETCHES SAME FILL-ORIGIN LEVEL: 0 DIFFERENT FILL-ORIGIN LEVEL: 0

PSCL3 TOTAL     ACCESS:     242259  HIT:     242214  MISS:         45  HIT %:    99.9814  MISS %:  0.0185752   MPKI: 0.000225
PSCL3 LOAD TRANSLATION ACCESS:      12260  HIT:      12215  MISS:         45  HIT %:     99.633  MISS %:   0.367047   MPKI: 0.000225
PSCL3 TRANSLATION FROM L1D PREFETCHER ACCESS:     229999  HIT:     229999  MISS:          0  HIT %:        100  MISS %:          0   MPKI: 0
PSCL3 PREFETCH  REQUESTED:          0  ISSUED:          0  USEFUL:          0  USELESS:          0
PSCL3 USEFUL LOAD PREFETCHES:          0 PREFETCH ISSUED TO LOWER LEVEL:          0  ACCURACY: -nan
PSCL3 TIMELY PREFETCHES:          0 LATE PREFETCHES: 0 DROPPED PREFETCHES: 0
PSCL3 PREFETCHES SAME FILL-ORIGIN LEVEL: 0 DIFFERENT FILL-ORIGIN LEVEL: 0

PSCL2 TOTAL     ACCESS:      68823  HIT:      67468  MISS:       1355  HIT %:    98.0312  MISS %:    1.96882   MPKI: 0.006775
PSCL2 LOAD TRANSLATION ACCESS:      12513  HIT:      11158  MISS:       1355  HIT %:    89.1713  MISS %:    10.8287   MPKI: 0.006775
PSCL2 TRANSLATION FROM L1D PREFETCHER ACCESS:      56310  HIT:      56310  MISS:          0  HIT %:        100  MISS %:          0   MPKI: 0
PSCL2 PREFETCH  REQUESTED:          0  ISSUED:          0  USEFUL:          0  USELESS:          0
PSCL2 USEFUL LOAD PREFETCHES:          0 PREFETCH ISSUED TO LOWER LEVEL:          0  ACCURACY: -nan
PSCL2 TIMELY PREFETCHES:          0 LATE PREFETCHES: 0 DROPPED PREFETCHES: 0
PSCL2 PREFETCHES SAME FILL-ORIGIN LEVEL: 0 DIFFERENT FILL-ORIGIN LEVEL: 0

LLC TOTAL     ACCESS:    2050664  HIT:    1905547  MISS:     145117  HIT %:    92.9234  MISS %:    7.07659   MPKI: 0.725585
LLC LOAD      ACCESS:    1251757  HIT:    1203133  MISS:      48624  HIT %:    96.1155  MISS %:    3.88446   MPKI: 0.24312
LLC RFO       ACCESS:     243481  HIT:     167124  MISS:      76357  HIT %:    68.6394  MISS %:    31.3606   MPKI: 0.381785
LLC PREFETCH  ACCESS:     172015  HIT:     155403  MISS:      16612  HIT %:    90.3427  MISS %:     9.6573   MPKI: 0.08306
AGUS PREFETCH L1 MISS: 0
LLC WRITEBACK ACCESS:     340937  HIT:     339741  MISS:       1196  HIT %:    99.6492  MISS %:   0.350798   MPKI: 0.00598
LLC LOAD TRANSLATION ACCESS:       8116  HIT:       7567  MISS:        549  HIT %:    93.2356  MISS %:    6.76442   MPKI: 0.002745
LLC TRANSLATION FROM L1D PREFETCHER ACCESS:      34358  HIT:      32579  MISS:       1779  HIT %:    94.8222  MISS %:    5.17783   MPKI: 0.008895
LLC PREFETCH  REQUESTED:          0  ISSUED:          0  USEFUL:       2229  USELESS:      15912
LLC USEFUL LOAD PREFETCHES:       2229 PREFETCH ISSUED TO LOWER LEVEL:      16612  ACCURACY: 13.418
LLC TIMELY PREFETCHES:       2229 LATE PREFETCHES: 0 DROPPED PREFETCHES: 0
LLC PREFETCHES SAME FILL-ORIGIN LEVEL: 0 DIFFERENT FILL-ORIGIN LEVEL: 0
LLC AVERAGE MISS LATENCY: 166.682 cycles
LLC RQ	ACCESS:    1537721	FORWARD:          0	MERGED:          0	TO_CACHE:    1537712
LLC WQ	ACCESS:     340937	FORWARD:          9	MERGED:          0	TO_CACHE:     340937
LLC PQ	ACCESS:     172015	FORWARD:          0	MERGED:          0	TO_CACHE:     172015

LLC Dense regions hint to LLC: 0

RAW hits: 1368489
Loads Generated: 48363972
Loads sent to L1D: 46995482
Stores Generated: 26317189
Stores sent to L1D: 26317199
Major fault: 0 Minor fault: 2466
Allocated PAGES: 2466
Completed 

DRAM Statistics
 CHANNEL 0
 RQ ROW_BUFFER_HIT:      53340  ROW_BUFFER_MISS:      90554
 DBUS_CONGESTED:         66
 WQ ROW_BUFFER_HIT:       7453  ROW_BUFFER_MISS:      76864  FULL:          0

 AVG_CONGESTED_CYCLE: 4
 All warmup complete: 2
Channel 0 Bank busy for read cycles: 0
Channel 0 Bank busy for write cycles: 0
Channel 0
Rank 0
0banks busy for read cycles: 582415223
0banks busy for write cycles: 21107
1banks busy for read cycles: 4734628
1banks busy for write cycles: 2782755
2banks busy for read cycles: 620645
2banks busy for write cycles: 528553
3banks busy for read cycles: 346191
3banks busy for write cycles: 259808
4banks busy for read cycles: 290284
4banks busy for write cycles: 192809
5banks busy for read cycles: 222897
5banks busy for write cycles: 184861
6banks busy for read cycles: 238167
6banks busy for write cycles: 190620
7banks busy for read cycles: 238349
7banks busy for write cycles: 241336
8banks busy for read cycles: 488969
8banks busy for write cycles: 614149

CPU 0 Branch Prediction Accuracy: 99.8129% MPKI: 0.329815 Average ROB Occupancy at Mispredict: 48.6034
Branch types
NOT_BRANCH: 164744969 82.3725%
BRANCH_DIRECT_JUMP: 2183763 1.09188%
BRANCH_INDIRECT: 11358219 5.67911%
BRANCH_CONDITIONAL: 13711964 6.85598%
BRANCH_DIRECT_CALL: 3381427 1.69071%
BRANCH_INDIRECT_CALL: 619012 0.309506%
BRANCH_RETURN: 4000423 2.00021%
BRANCH_OTHER: 0 0%

DRAM PAGES: 1048576
Allocated PAGES: 2466
