
*** ChampSim Multicore Out-of-Order Simulator ***

Warmup Instructions: 50000000
Simulation Instructions: 200000000
Number of CPUs: 1
LLC sets: 2048
LLC ways: 16
Off-chip DRAM Size: 4096 MB Channels: 1 Width: 64-bit Data Rate: 6400 MT/s
CPU 0 runs traces/spec2k17/server_011.champsimtrace.xz
.xz
BTB has LRU replacement policy
ITLB has LRU replacement policy
DTLB has LRU replacement policy
STLB has LRU replacement policy
L1I has LRU replacement policy
L1D has LRU replacement policy
Initialize SRRIP state for L2C
Initialize DRRIP state for LLC
Heartbeat CPU 0 instructions: 10000002 cycles: 2780619 heartbeat IPC: 3.59632 cumulative IPC: 3.59632 (Simulation time: 0 hr 0 min 41 sec) 
Heartbeat CPU 0 instructions: 20000000 cycles: 5556886 heartbeat IPC: 3.60196 cumulative IPC: 3.59914 (Simulation time: 0 hr 1 min 18 sec) 
Heartbeat CPU 0 instructions: 30000000 cycles: 8359708 heartbeat IPC: 3.56783 cumulative IPC: 3.58864 (Simulation time: 0 hr 1 min 53 sec) 
Heartbeat CPU 0 instructions: 40000001 cycles: 11137244 heartbeat IPC: 3.60031 cumulative IPC: 3.59155 (Simulation time: 0 hr 2 min 21 sec) 
Heartbeat CPU 0 instructions: 50000000 cycles: 13917418 heartbeat IPC: 3.5969 cumulative IPC: 3.59262 (Simulation time: 0 hr 2 min 49 sec) 

Warmup complete CPU 0 instructions: 50000004 cycles: 13917419 (Simulation time: 0 hr 2 min 49 sec) 

Heartbeat CPU 0 instructions: 60000001 cycles: 38065825 heartbeat IPC: 0.414106 cumulative IPC: 0.414106 (Simulation time: 0 hr 3 min 29 sec) 
Heartbeat CPU 0 instructions: 70000000 cycles: 62089536 heartbeat IPC: 0.416255 cumulative IPC: 0.415178 (Simulation time: 0 hr 4 min 23 sec) 
Heartbeat CPU 0 instructions: 80000001 cycles: 87879219 heartbeat IPC: 0.387752 cumulative IPC: 0.405615 (Simulation time: 0 hr 5 min 21 sec) 
Heartbeat CPU 0 instructions: 90000003 cycles: 113621593 heartbeat IPC: 0.388465 cumulative IPC: 0.401187 (Simulation time: 0 hr 6 min 20 sec) 
Heartbeat CPU 0 instructions: 100000003 cycles: 136813152 heartbeat IPC: 0.431191 cumulative IPC: 0.406849 (Simulation time: 0 hr 7 min 12 sec) 
*** Reached end of trace for Core: 0 Repeating trace: traces/spec2k17/server_011.champsimtrace.xz
Heartbeat CPU 0 instructions: 110000000 cycles: 160531068 heartbeat IPC: 0.421622 cumulative IPC: 0.409239 (Simulation time: 0 hr 7 min 50 sec) 
Heartbeat CPU 0 instructions: 120000003 cycles: 184796511 heartbeat IPC: 0.412109 cumulative IPC: 0.409646 (Simulation time: 0 hr 8 min 28 sec) 
Heartbeat CPU 0 instructions: 130000000 cycles: 209105379 heartbeat IPC: 0.411372 cumulative IPC: 0.409861 (Simulation time: 0 hr 9 min 6 sec) 
Heartbeat CPU 0 instructions: 140000002 cycles: 235709957 heartbeat IPC: 0.375875 cumulative IPC: 0.405785 (Simulation time: 0 hr 9 min 44 sec) 
Heartbeat CPU 0 instructions: 150000000 cycles: 259925163 heartbeat IPC: 0.412964 cumulative IPC: 0.406491 (Simulation time: 0 hr 10 min 21 sec) 
Heartbeat CPU 0 instructions: 160000002 cycles: 283792554 heartbeat IPC: 0.418982 cumulative IPC: 0.407596 (Simulation time: 0 hr 11 min 14 sec) 
Heartbeat CPU 0 instructions: 170000000 cycles: 307710893 heartbeat IPC: 0.418089 cumulative IPC: 0.40845 (Simulation time: 0 hr 12 min 10 sec) 
Heartbeat CPU 0 instructions: 180000002 cycles: 334501320 heartbeat IPC: 0.373268 cumulative IPC: 0.40551 (Simulation time: 0 hr 13 min 2 sec) 
Heartbeat CPU 0 instructions: 190000001 cycles: 359081665 heartbeat IPC: 0.406829 cumulative IPC: 0.405604 (Simulation time: 0 hr 13 min 39 sec) 
Heartbeat CPU 0 instructions: 200000002 cycles: 382329384 heartbeat IPC: 0.43015 cumulative IPC: 0.407153 (Simulation time: 0 hr 14 min 16 sec) 
*** Reached end of trace for Core: 0 Repeating trace: traces/spec2k17/server_011.champsimtrace.xz
Heartbeat CPU 0 instructions: 210000003 cycles: 405907550 heartbeat IPC: 0.424121 cumulative IPC: 0.408174 (Simulation time: 0 hr 15 min 2 sec) 
Heartbeat CPU 0 instructions: 220000000 cycles: 430218524 heartbeat IPC: 0.411337 cumulative IPC: 0.408358 (Simulation time: 0 hr 15 min 53 sec) 
Heartbeat CPU 0 instructions: 230000002 cycles: 454054483 heartbeat IPC: 0.419534 cumulative IPC: 0.408964 (Simulation time: 0 hr 16 min 38 sec) 
Heartbeat CPU 0 instructions: 240000001 cycles: 480989077 heartbeat IPC: 0.37127 cumulative IPC: 0.40679 (Simulation time: 0 hr 17 min 23 sec) 
Heartbeat CPU 0 instructions: 250000000 cycles: 504720689 heartbeat IPC: 0.421379 cumulative IPC: 0.407495 (Simulation time: 0 hr 18 min 9 sec) 
Finished CPU 0 instructions: 200000000 cycles: 490803273 cumulative IPC: 0.407495 (Simulation time: 0 hr 18 min 9 sec) 

ChampSim completed all CPUs

Region of Interest Statistics

CPU 0 cumulative IPC: 0.407495 instructions: 200000000 cycles: 490803273
ITLB TOTAL     ACCESS:   32108002  HIT:   31346723  MISS:     761279  HIT %:     97.629  MISS %:    2.37099   MPKI: 3.8064
ITLB LOAD TRANSLATION ACCESS:   32108002  HIT:   31346723  MISS:     761279  HIT %:     97.629  MISS %:    2.37099   MPKI: 3.8064
ITLB PREFETCH  REQUESTED:          0  ISSUED:          0  USEFUL:          0  USELESS:          0
ITLB USEFUL LOAD PREFETCHES:          0 PREFETCH ISSUED TO LOWER LEVEL:          0  ACCURACY: -nan
ITLB TIMELY PREFETCHES:          0 LATE PREFETCHES: 0 DROPPED PREFETCHES: 0
ITLB PREFETCHES SAME FILL-ORIGIN LEVEL: 0 DIFFERENT FILL-ORIGIN LEVEL: 0
ITLB AVERAGE MISS LATENCY: 15.697 cycles
ITLB RQ	ACCESS:   38679911	FORWARD:          0	MERGED:    6386782	TO_CACHE:   32293129

DTLB TOTAL     ACCESS:   38382552  HIT:   36007500  MISS:    2375052  HIT %:    93.8122  MISS %:    6.18784   MPKI: 11.8753
DTLB LOAD TRANSLATION ACCESS:   38382552  HIT:   36007500  MISS:    2375052  HIT %:    93.8122  MISS %:    6.18784   MPKI: 11.8753
DTLB PREFETCH  REQUESTED:          0  ISSUED:          0  USEFUL:          0  USELESS:          0
DTLB USEFUL LOAD PREFETCHES:          0 PREFETCH ISSUED TO LOWER LEVEL:          0  ACCURACY: -nan
DTLB TIMELY PREFETCHES:          0 LATE PREFETCHES: 0 DROPPED PREFETCHES: 0
DTLB PREFETCHES SAME FILL-ORIGIN LEVEL: 0 DIFFERENT FILL-ORIGIN LEVEL: 0
DTLB AVERAGE MISS LATENCY: 13.7077 cycles
DTLB RQ	ACCESS:   48885150	FORWARD:          0	MERGED:   10373692	TO_CACHE:   38511458

STLB TOTAL     ACCESS:    9837901  HIT:    9405668  MISS:     432233  HIT %:    95.6065  MISS %:    4.39355   MPKI: 2.16117
STLB LOAD TRANSLATION ACCESS:    3136331  HIT:    2714584  MISS:     421747  HIT %:    86.5529  MISS %:    13.4471   MPKI: 2.10873
STLB TRANSLATION FROM L1D PREFETCHER ACCESS:    6701570  HIT:    6691084  MISS:      10486  HIT %:    99.8435  MISS %:   0.156471   MPKI: 0.05243
STLB PREFETCH  REQUESTED:          0  ISSUED:          0  USEFUL:       8707  USELESS:       1768
STLB USEFUL LOAD PREFETCHES:       8707 PREFETCH ISSUED TO LOWER LEVEL:          0  ACCURACY: inf
STLB TIMELY PREFETCHES:       8707 LATE PREFETCHES: 2264 DROPPED PREFETCHES: 178475
STLB PREFETCHES SAME FILL-ORIGIN LEVEL: 0 DIFFERENT FILL-ORIGIN LEVEL: 0
STLB AVERAGE MISS LATENCY: 40.4066 cycles
STLB RQ	ACCESS:   11343414	FORWARD:          0	MERGED:    1323375	TO_CACHE:   10020039

STLB Hit, L1D data hit: 0
STLB Hit, L2C data hit: 0
STLB Hit, LLC data hit: 0
STLB Hit, LLC data miss: 0
STLB STLB hints to L2: 0
L1D TOTAL     ACCESS:   56189972  HIT:   53589319  MISS:    2600653  HIT %:    95.3717  MISS %:    4.62832   MPKI: 13.0033
L1D LOAD      ACCESS:   29047851  HIT:   26976287  MISS:    2071564  HIT %:    92.8684  MISS %:    7.13156   MPKI: 10.3578
L1D RFO       ACCESS:   19269092  HIT:   18917043  MISS:     352049  HIT %:     98.173  MISS %:    1.82701   MPKI: 1.76025
L1D PREFETCH  ACCESS:    7873029  HIT:    7695989  MISS:     177040  HIT %:    97.7513  MISS %:    2.24869   MPKI: 0.8852
AGUS PREFETCH L1 MISS: 0
L1D PREFETCH  REQUESTED:   18787109  ISSUED:   18786763  USEFUL:     101979  USELESS:      75047
L1D USEFUL LOAD PREFETCHES:     101979 PREFETCH ISSUED TO LOWER LEVEL:     222488  ACCURACY: 45.8357
L1D TIMELY PREFETCHES:     101979 LATE PREFETCHES: 45151 DROPPED PREFETCHES: 193681
L1D PREFETCHES SAME FILL-ORIGIN LEVEL: 222488 DIFFERENT FILL-ORIGIN LEVEL: 0
L1D AVERAGE MISS LATENCY: 5.80913e+06 cycles
L1D RQ	ACCESS:   43713523	FORWARD:          0	MERGED:   14320185	TO_CACHE:   29186206
L1D WQ	ACCESS:   19987410	FORWARD:     246886	MERGED:     288466	TO_CACHE:   19698944
L1D PQ	ACCESS:   10579680	FORWARD:          0	MERGED:    2332843	TO_CACHE:    8207083

L1D UNIQUE REGIONS ACCESSED: 0
L1D REGIONS CONFLICTS: 0
L1D Cross Page Prefetch Requests: 7103559
L1D Same Page Prefetch Requests: 5233361
L1D ROI Sum of L1D PQ occupancy: 120145906
L1D PREFETCHES PUSHED FROM L2C: 0
L1I TOTAL     ACCESS:   37142150  HIT:   32273886  MISS:    4868264  HIT %:    86.8929  MISS %:    13.1071   MPKI: 24.3413
L1I LOAD      ACCESS:   37142150  HIT:   32273886  MISS:    4868264  HIT %:    86.8929  MISS %:    13.1071   MPKI: 24.3413
L1I PREFETCH  REQUESTED:          0  ISSUED:          0  USEFUL:          0  USELESS:          0
L1I USEFUL LOAD PREFETCHES:          0 PREFETCH ISSUED TO LOWER LEVEL:          0  ACCURACY: -nan
L1I TIMELY PREFETCHES:          0 LATE PREFETCHES: 0 DROPPED PREFETCHES: 0
L1I PREFETCHES SAME FILL-ORIGIN LEVEL: 0 DIFFERENT FILL-ORIGIN LEVEL: 0
L1I AVERAGE MISS LATENCY: 29.166 cycles
L1I RQ	ACCESS:   57586482	FORWARD:          0	MERGED:   18906571	TO_CACHE:   38679911

BTB TOTAL     ACCESS:   23884119  HIT:   18824312  MISS:    5059807  HIT %:    78.8152  MISS %:    21.1848   MPKI: 25.299
BTB BRANCH_DIRECT_JUMP	ACCESS:    1754249  HIT:    1463659  MISS:     290590
BTB BRANCH_INDIRECT	ACCESS:    9786566  HIT:    7419553  MISS:    2367013
BTB BRANCH_CONDITIONAL	ACCESS:    5653971  HIT:    5194175  MISS:     459796
BTB BRANCH_DIRECT_CALL	ACCESS:    2532331  HIT:    1980726  MISS:     551605
BTB BRANCH_INDIRECT_CALL	ACCESS:     808488  HIT:     692902  MISS:     115586
BTB BRANCH_RETURN	ACCESS:    3348514  HIT:    2073297  MISS:    1275217
BTB BRANCH_OTHER ACCESS:          0  HIT:          0  MISS:          0

L2C TOTAL     ACCESS:    9231828  HIT:    5495551  MISS:    3736277  HIT %:    59.5283  MISS %:    40.4717   MPKI: 18.6814
L2C LOAD      ACCESS:    6894622  HIT:    3686595  MISS:    3208027  HIT %:    53.4706  MISS %:    46.5294   MPKI: 16.0401
L2C DATA LOAD MPKI: 5.24657
L2C INSTRUCTION LOAD MPKI: 10.7936
L2C RFO       ACCESS:     351752  HIT:     173973  MISS:     177779  HIT %:     49.459  MISS %:     50.541   MPKI: 0.888895
L2C PREFETCH  ACCESS:     222473  HIT:     144744  MISS:      77729  HIT %:    65.0614  MISS %:    34.9386   MPKI: 0.388645
AGUS PREFETCH L1 MISS: 0
L2C DATA PREFETCH MPKI: 0.388645
L2C INSTRUCTION PREFETCH MPKI: 0
L2C WRITEBACK ACCESS:     996243  HIT:     944148  MISS:      52095  HIT %:    94.7709  MISS %:    5.22915   MPKI: 0.260475
L2C LOAD TRANSLATION ACCESS:     530599  HIT:     338873  MISS:     191726  HIT %:    63.8661  MISS %:    36.1339   MPKI: 0.95863
L2C TRANSLATION FROM L1D PREFETCHER ACCESS:     236139  HIT:     207218  MISS:      28921  HIT %:    87.7526  MISS %:    12.2474   MPKI: 0.144605
L2C PREFETCH  REQUESTED:          0  ISSUED:          0  USEFUL:      25288  USELESS:      81206
L2C USEFUL LOAD PREFETCHES:      25288 PREFETCH ISSUED TO LOWER LEVEL:      77729  ACCURACY: 32.5335
L2C TIMELY PREFETCHES:      25288 LATE PREFETCHES: 0 DROPPED PREFETCHES: 0
L2C PREFETCHES SAME FILL-ORIGIN LEVEL: 0 DIFFERENT FILL-ORIGIN LEVEL: 0
L2C AVERAGE MISS LATENCY: 43.5938 cycles
L2C RQ	ACCESS:    8013167	FORWARD:          0	MERGED:          0	TO_CACHE:    8013112
L2C WQ	ACCESS:     996243	FORWARD:         70	MERGED:          0	TO_CACHE:     996243
L2C PQ	ACCESS:     222488	FORWARD:          0	MERGED:          0	TO_CACHE:     222473

L2C Instructions Evicting Data 778233
L2C Translations Evicting Data 84940
L2C Data Evicting Data 474704
L2C Instructions Evicting Instructions 1257773
L2C Translations Evicting Instructions 123558
L2C Data Evicting Instructions 747346
L2C Instructions Evicting Translations 122706
L2C Translations Evicting Translations 12149
L2C Data Evicting Translations 82773
L2C Dense regions hint from L2: 0
PSCL5 TOTAL     ACCESS:     602681  HIT:     602681  MISS:          0  HIT %:        100  MISS %:          0   MPKI: 0
PSCL5 LOAD TRANSLATION ACCESS:     419483  HIT:     419483  MISS:          0  HIT %:        100  MISS %:          0   MPKI: 0
PSCL5 TRANSLATION FROM L1D PREFETCHER ACCESS:     183198  HIT:     183198  MISS:          0  HIT %:        100  MISS %:          0   MPKI: 0
PSCL5 PREFETCH  REQUESTED:          0  ISSUED:          0  USEFUL:          0  USELESS:          0
PSCL5 USEFUL LOAD PREFETCHES:          0 PREFETCH ISSUED TO LOWER LEVEL:          0  ACCURACY: -nan
PSCL5 TIMELY PREFETCHES:          0 LATE PREFETCHES: 0 DROPPED PREFETCHES: 0
PSCL5 PREFETCHES SAME FILL-ORIGIN LEVEL: 0 DIFFERENT FILL-ORIGIN LEVEL: 0

PSCL4 TOTAL     ACCESS:     560951  HIT:     559749  MISS:       1202  HIT %:    99.7857  MISS %:   0.214279   MPKI: 0.00601
PSCL4 LOAD TRANSLATION ACCESS:     399878  HIT:     398676  MISS:       1202  HIT %:    99.6994  MISS %:   0.300592   MPKI: 0.00601
PSCL4 TRANSLATION FROM L1D PREFETCHER ACCESS:     161073  HIT:     161073  MISS:          0  HIT %:        100  MISS %:          0   MPKI: 0
PSCL4 PREFETCH  REQUESTED:          0  ISSUED:          0  USEFUL:          0  USELESS:          0
PSCL4 USEFUL LOAD PREFETCHES:          0 PREFETCH ISSUED TO LOWER LEVEL:          0  ACCURACY: -nan
PSCL4 TIMELY PREFETCHES:          0 LATE PREFETCHES: 0 DROPPED PREFETCHES: 0
PSCL4 PREFETCHES SAME FILL-ORIGIN LEVEL: 0 DIFFERENT FILL-ORIGIN LEVEL: 0

PSCL3 TOTAL     ACCESS:     577712  HIT:     574196  MISS:       3516  HIT %:    99.3914  MISS %:   0.608608   MPKI: 0.01758
PSCL3 LOAD TRANSLATION ACCESS:     416227  HIT:     412711  MISS:       3516  HIT %:    99.1553  MISS %:   0.844731   MPKI: 0.01758
PSCL3 TRANSLATION FROM L1D PREFETCHER ACCESS:     161485  HIT:     161485  MISS:          0  HIT %:        100  MISS %:          0   MPKI: 0
PSCL3 PREFETCH  REQUESTED:          0  ISSUED:          0  USEFUL:          0  USELESS:          0
PSCL3 USEFUL LOAD PREFETCHES:          0 PREFETCH ISSUED TO LOWER LEVEL:          0  ACCURACY: -nan
PSCL3 TIMELY PREFETCHES:          0 LATE PREFETCHES: 0 DROPPED PREFETCHES: 0
PSCL3 PREFETCHES SAME FILL-ORIGIN LEVEL: 0 DIFFERENT FILL-ORIGIN LEVEL: 0

PSCL2 TOTAL     ACCESS:     454707  HIT:     342187  MISS:     112520  HIT %:    75.2544  MISS %:    24.7456   MPKI: 0.5626
PSCL2 LOAD TRANSLATION ACCESS:     425488  HIT:     312968  MISS:     112520  HIT %:    73.5551  MISS %:    26.4449   MPKI: 0.5626
PSCL2 TRANSLATION FROM L1D PREFETCHER ACCESS:      29219  HIT:      29219  MISS:          0  HIT %:        100  MISS %:          0   MPKI: 0
PSCL2 PREFETCH  REQUESTED:          0  ISSUED:          0  USEFUL:          0  USELESS:          0
PSCL2 USEFUL LOAD PREFETCHES:          0 PREFETCH ISSUED TO LOWER LEVEL:          0  ACCURACY: -nan
PSCL2 TIMELY PREFETCHES:          0 LATE PREFETCHES: 0 DROPPED PREFETCHES: 0
PSCL2 PREFETCHES SAME FILL-ORIGIN LEVEL: 0 DIFFERENT FILL-ORIGIN LEVEL: 0

LLC TOTAL     ACCESS:    4152800  HIT:    3810676  MISS:     342124  HIT %:    91.7616  MISS %:    8.23839   MPKI: 1.71062
LLC LOAD      ACCESS:    3208027  HIT:    2952791  MISS:     255236  HIT %:    92.0438  MISS %:    7.95617   MPKI: 1.27618
LLC RFO       ACCESS:     177779  HIT:     116215  MISS:      61564  HIT %:    65.3705  MISS %:    34.6295   MPKI: 0.30782
LLC PREFETCH  ACCESS:      77727  HIT:      66626  MISS:      11101  HIT %:     85.718  MISS %:     14.282   MPKI: 0.055505
AGUS PREFETCH L1 MISS: 0
LLC WRITEBACK ACCESS:     468620  HIT:     463048  MISS:       5572  HIT %:     98.811  MISS %:    1.18902   MPKI: 0.02786
LLC LOAD TRANSLATION ACCESS:     191726  HIT:     185742  MISS:       5984  HIT %:    96.8789  MISS %:    3.12112   MPKI: 0.02992
LLC TRANSLATION FROM L1D PREFETCHER ACCESS:      28921  HIT:      26254  MISS:       2667  HIT %:    90.7783  MISS %:    9.22167   MPKI: 0.013335
LLC PREFETCH  REQUESTED:          0  ISSUED:          0  USEFUL:       3286  USELESS:      10049
LLC USEFUL LOAD PREFETCHES:       3286 PREFETCH ISSUED TO LOWER LEVEL:      11101  ACCURACY: 29.6009
LLC TIMELY PREFETCHES:       3286 LATE PREFETCHES: 0 DROPPED PREFETCHES: 0
LLC PREFETCHES SAME FILL-ORIGIN LEVEL: 0 DIFFERENT FILL-ORIGIN LEVEL: 0
LLC AVERAGE MISS LATENCY: 152.92 cycles
LLC RQ	ACCESS:    3606453	FORWARD:          0	MERGED:          0	TO_CACHE:    3606453
LLC WQ	ACCESS:     468620	FORWARD:          2	MERGED:          0	TO_CACHE:     468620
LLC PQ	ACCESS:      77729	FORWARD:          0	MERGED:          0	TO_CACHE:      77727

LLC Dense regions hint to LLC: 0

RAW hits: 2657640
Loads Generated: 46371163
Loads sent to L1D: 43713523
Stores Generated: 19987388
Stores sent to L1D: 19987410
Major fault: 0 Minor fault: 7361
Allocated PAGES: 7361
Completed 

DRAM Statistics
 CHANNEL 0
 RQ ROW_BUFFER_HIT:      61213  ROW_BUFFER_MISS:     275337
 DBUS_CONGESTED:        135
 WQ ROW_BUFFER_HIT:      34388  ROW_BUFFER_MISS:     186345  FULL:          0

 AVG_CONGESTED_CYCLE: 4
 All warmup complete: 2
Channel 0 Bank busy for read cycles: 0
Channel 0 Bank busy for write cycles: 0
Channel 0
Rank 0
0banks busy for read cycles: 427348625
0banks busy for write cycles: 130254
1banks busy for read cycles: 32067508
1banks busy for write cycles: 18875504
2banks busy for read cycles: 4163327
2banks busy for write cycles: 4375249
3banks busy for read cycles: 535992
3banks busy for write cycles: 1396980
4banks busy for read cycles: 211121
4banks busy for write cycles: 572996
5banks busy for read cycles: 82414
5banks busy for write cycles: 282591
6banks busy for read cycles: 46725
6banks busy for write cycles: 186323
7banks busy for read cycles: 38021
7banks busy for write cycles: 174493
8banks busy for read cycles: 71314
8banks busy for write cycles: 243837

CPU 0 Branch Prediction Accuracy: 98.8611% MPKI: 2.07212 Average ROB Occupancy at Mispredict: 13.5828
Branch types
NOT_BRANCH: 163610883 81.8054%
BRANCH_DIRECT_JUMP: 1754249 0.877124%
BRANCH_INDIRECT: 9786566 4.89328%
BRANCH_CONDITIONAL: 18158639 9.07932%
BRANCH_DIRECT_CALL: 2532331 1.26617%
BRANCH_INDIRECT_CALL: 808488 0.404244%
BRANCH_RETURN: 3348514 1.67426%
BRANCH_OTHER: 0 0%

DRAM PAGES: 1048576
Allocated PAGES: 7361
