
*** ChampSim Multicore Out-of-Order Simulator ***

Warmup Instructions: 50000000
Simulation Instructions: 200000000
Number of CPUs: 1
LLC sets: 2048
LLC ways: 16
Off-chip DRAM Size: 4096 MB Channels: 1 Width: 64-bit Data Rate: 6400 MT/s
CPU 0 runs traces/spec2k17/server_025.champsimtrace.xz
.xz
BTB has LRU replacement policy
ITLB has LRU replacement policy
DTLB has LRU replacement policy
STLB has LRU replacement policy
L1I has LRU replacement policy
L1D has LRU replacement policy
Initialize SRRIP state for L2C
Initialize DRRIP state for LLC
Heartbeat CPU 0 instructions: 10000003 cycles: 2821188 heartbeat IPC: 3.54461 cumulative IPC: 3.54461 (Simulation time: 0 hr 0 min 46 sec) 
Heartbeat CPU 0 instructions: 20000000 cycles: 5640727 heartbeat IPC: 3.54668 cumulative IPC: 3.54564 (Simulation time: 0 hr 1 min 24 sec) 
Heartbeat CPU 0 instructions: 30000002 cycles: 8459786 heartbeat IPC: 3.54728 cumulative IPC: 3.54619 (Simulation time: 0 hr 1 min 58 sec) 
Heartbeat CPU 0 instructions: 40000001 cycles: 11280708 heartbeat IPC: 3.54494 cumulative IPC: 3.54588 (Simulation time: 0 hr 2 min 32 sec) 
Heartbeat CPU 0 instructions: 50000001 cycles: 14105366 heartbeat IPC: 3.54025 cumulative IPC: 3.54475 (Simulation time: 0 hr 3 min 10 sec) 

Warmup complete CPU 0 instructions: 50000001 cycles: 14105366 (Simulation time: 0 hr 3 min 10 sec) 

Heartbeat CPU 0 instructions: 60000000 cycles: 46197563 heartbeat IPC: 0.311602 cumulative IPC: 0.311602 (Simulation time: 0 hr 4 min 11 sec) 
Heartbeat CPU 0 instructions: 70000003 cycles: 78389543 heartbeat IPC: 0.310636 cumulative IPC: 0.311119 (Simulation time: 0 hr 5 min 4 sec) 
Heartbeat CPU 0 instructions: 80000000 cycles: 110651248 heartbeat IPC: 0.309965 cumulative IPC: 0.310733 (Simulation time: 0 hr 6 min 3 sec) 
Heartbeat CPU 0 instructions: 90000000 cycles: 142849539 heartbeat IPC: 0.310575 cumulative IPC: 0.310694 (Simulation time: 0 hr 7 min 10 sec) 
Heartbeat CPU 0 instructions: 100000000 cycles: 162652018 heartbeat IPC: 0.504987 cumulative IPC: 0.336595 (Simulation time: 0 hr 8 min 15 sec) 
*** Reached end of trace for Core: 0 Repeating trace: traces/spec2k17/server_025.champsimtrace.xz
Heartbeat CPU 0 instructions: 110000000 cycles: 194556378 heartbeat IPC: 0.313437 cumulative IPC: 0.3325 (Simulation time: 0 hr 9 min 5 sec) 
Heartbeat CPU 0 instructions: 120000000 cycles: 226317983 heartbeat IPC: 0.314846 cumulative IPC: 0.329858 (Simulation time: 0 hr 9 min 56 sec) 
Heartbeat CPU 0 instructions: 130000001 cycles: 258296233 heartbeat IPC: 0.312713 cumulative IPC: 0.327613 (Simulation time: 0 hr 10 min 38 sec) 
Heartbeat CPU 0 instructions: 140000002 cycles: 290051315 heartbeat IPC: 0.31491 cumulative IPC: 0.326151 (Simulation time: 0 hr 11 min 19 sec) 
Heartbeat CPU 0 instructions: 150000000 cycles: 321857133 heartbeat IPC: 0.314408 cumulative IPC: 0.324937 (Simulation time: 0 hr 12 min 0 sec) 
Heartbeat CPU 0 instructions: 160000000 cycles: 353769789 heartbeat IPC: 0.313355 cumulative IPC: 0.323849 (Simulation time: 0 hr 12 min 43 sec) 
Heartbeat CPU 0 instructions: 170000000 cycles: 385393452 heartbeat IPC: 0.316219 cumulative IPC: 0.323199 (Simulation time: 0 hr 13 min 28 sec) 
Heartbeat CPU 0 instructions: 180000001 cycles: 417422414 heartbeat IPC: 0.312217 cumulative IPC: 0.322327 (Simulation time: 0 hr 14 min 10 sec) 
Heartbeat CPU 0 instructions: 190000001 cycles: 449334256 heartbeat IPC: 0.313363 cumulative IPC: 0.32167 (Simulation time: 0 hr 14 min 57 sec) 
Heartbeat CPU 0 instructions: 200000003 cycles: 473271610 heartbeat IPC: 0.417757 cumulative IPC: 0.326679 (Simulation time: 0 hr 15 min 42 sec) 
*** Reached end of trace for Core: 0 Repeating trace: traces/spec2k17/server_025.champsimtrace.xz
Heartbeat CPU 0 instructions: 210000000 cycles: 500912620 heartbeat IPC: 0.361781 cumulative IPC: 0.328672 (Simulation time: 0 hr 16 min 34 sec) 
Heartbeat CPU 0 instructions: 220000000 cycles: 532601357 heartbeat IPC: 0.31557 cumulative IPC: 0.327871 (Simulation time: 0 hr 17 min 38 sec) 
Heartbeat CPU 0 instructions: 230000000 cycles: 564429501 heartbeat IPC: 0.314187 cumulative IPC: 0.32708 (Simulation time: 0 hr 18 min 45 sec) 
Heartbeat CPU 0 instructions: 240000002 cycles: 596002031 heartbeat IPC: 0.316731 cumulative IPC: 0.326518 (Simulation time: 0 hr 19 min 45 sec) 
Heartbeat CPU 0 instructions: 250000003 cycles: 627829568 heartbeat IPC: 0.314193 cumulative IPC: 0.325879 (Simulation time: 0 hr 20 min 46 sec) 
Finished CPU 0 instructions: 200000002 cycles: 613724202 cumulative IPC: 0.325879 (Simulation time: 0 hr 20 min 46 sec) 

ChampSim completed all CPUs

Region of Interest Statistics

CPU 0 cumulative IPC: 0.325879 instructions: 200000002 cycles: 613724202
ITLB TOTAL     ACCESS:   34735510  HIT:   32825180  MISS:    1910330  HIT %:    94.5004  MISS %:    5.49965   MPKI: 9.55165
ITLB LOAD TRANSLATION ACCESS:   34735510  HIT:   32825180  MISS:    1910330  HIT %:    94.5004  MISS %:    5.49965   MPKI: 9.55165
ITLB PREFETCH  REQUESTED:          0  ISSUED:          0  USEFUL:          0  USELESS:          0
ITLB USEFUL LOAD PREFETCHES:          0 PREFETCH ISSUED TO LOWER LEVEL:          0  ACCURACY: -nan
ITLB TIMELY PREFETCHES:          0 LATE PREFETCHES: 0 DROPPED PREFETCHES: 0
ITLB PREFETCHES SAME FILL-ORIGIN LEVEL: 0 DIFFERENT FILL-ORIGIN LEVEL: 0
ITLB AVERAGE MISS LATENCY: 9.07519 cycles
ITLB RQ	ACCESS:   40854083	FORWARD:          0	MERGED:    5662139	TO_CACHE:   35191944

DTLB TOTAL     ACCESS:   46058511  HIT:   44289882  MISS:    1768629  HIT %:      96.16  MISS %:    3.83996   MPKI: 8.84314
DTLB LOAD TRANSLATION ACCESS:   46058511  HIT:   44289882  MISS:    1768629  HIT %:      96.16  MISS %:    3.83996   MPKI: 8.84314
DTLB PREFETCH  REQUESTED:          0  ISSUED:          0  USEFUL:          0  USELESS:          0
DTLB USEFUL LOAD PREFETCHES:          0 PREFETCH ISSUED TO LOWER LEVEL:          0  ACCURACY: -nan
DTLB TIMELY PREFETCHES:          0 LATE PREFETCHES: 0 DROPPED PREFETCHES: 0
DTLB PREFETCHES SAME FILL-ORIGIN LEVEL: 0 DIFFERENT FILL-ORIGIN LEVEL: 0
DTLB AVERAGE MISS LATENCY: 8.50747 cycles
DTLB RQ	ACCESS:   60893507	FORWARD:          0	MERGED:   14775417	TO_CACHE:   46118090

STLB TOTAL     ACCESS:   19563464  HIT:   19550851  MISS:      12613  HIT %:    99.9355  MISS %:  0.0644722   MPKI: 0.063065
STLB LOAD TRANSLATION ACCESS:    3678959  HIT:    3668829  MISS:      10130  HIT %:    99.7247  MISS %:    0.27535   MPKI: 0.05065
STLB TRANSLATION FROM L1D PREFETCHER ACCESS:   15884505  HIT:   15882022  MISS:       2483  HIT %:    99.9844  MISS %:  0.0156316   MPKI: 0.012415
STLB PREFETCH  REQUESTED:          0  ISSUED:          0  USEFUL:       1443  USELESS:       1009
STLB USEFUL LOAD PREFETCHES:       1443 PREFETCH ISSUED TO LOWER LEVEL:          0  ACCURACY: inf
STLB TIMELY PREFETCHES:       1443 LATE PREFETCHES: 204 DROPPED PREFETCHES: 275238
STLB PREFETCHES SAME FILL-ORIGIN LEVEL: 0 DIFFERENT FILL-ORIGIN LEVEL: 0
STLB AVERAGE MISS LATENCY: 50.1119 cycles
STLB RQ	ACCESS:   22523248	FORWARD:          0	MERGED:    2684132	TO_CACHE:   19839116

STLB Hit, L1D data hit: 0
STLB Hit, L2C data hit: 0
STLB Hit, LLC data hit: 0
STLB Hit, LLC data miss: 0
STLB STLB hints to L2: 0
L1D TOTAL     ACCESS:   77016320  HIT:   72893075  MISS:    4123245  HIT %:    94.6463  MISS %:    5.35373   MPKI: 20.6162
L1D LOAD      ACCESS:   34022035  HIT:   31956006  MISS:    2066029  HIT %:    93.9274  MISS %:    6.07262   MPKI: 10.3301
L1D RFO       ACCESS:   25223963  HIT:   24223455  MISS:    1000508  HIT %:    96.0335  MISS %:     3.9665   MPKI: 5.00254
L1D PREFETCH  ACCESS:   17770322  HIT:   16713614  MISS:    1056708  HIT %:    94.0535  MISS %:    5.94648   MPKI: 5.28354
AGUS PREFETCH L1 MISS: 0
L1D PREFETCH  REQUESTED:   40542175  ISSUED:   40542039  USEFUL:     742094  USELESS:     314569
L1D USEFUL LOAD PREFETCHES:     742094 PREFETCH ISSUED TO LOWER LEVEL:    1393959  ACCURACY: 53.2364
L1D TIMELY PREFETCHES:     742094 LATE PREFETCHES: 333202 DROPPED PREFETCHES: 319698
L1D PREFETCHES SAME FILL-ORIGIN LEVEL: 1393959 DIFFERENT FILL-ORIGIN LEVEL: 0
L1D AVERAGE MISS LATENCY: 3.14627e+07 cycles
L1D RQ	ACCESS:   47258086	FORWARD:          0	MERGED:   12828483	TO_CACHE:   34111759
L1D WQ	ACCESS:   26938645	FORWARD:     365048	MERGED:     156897	TO_CACHE:   26781748
L1D PQ	ACCESS:   21697750	FORWARD:          0	MERGED:    2806257	TO_CACHE:   18844289

L1D UNIQUE REGIONS ACCESSED: 0
L1D REGIONS CONFLICTS: 0
L1D Cross Page Prefetch Requests: 14669294
L1D Same Page Prefetch Requests: 8060090
L1D ROI Sum of L1D PQ occupancy: 265925675
L1D PREFETCHES PUSHED FROM L2C: 0
L1I TOTAL     ACCESS:   39433151  HIT:   29480894  MISS:    9952257  HIT %:    74.7617  MISS %:    25.2383   MPKI: 49.7613
L1I LOAD      ACCESS:   39433151  HIT:   29480894  MISS:    9952257  HIT %:    74.7617  MISS %:    25.2383   MPKI: 49.7613
L1I PREFETCH  REQUESTED:          0  ISSUED:          0  USEFUL:          0  USELESS:          0
L1I USEFUL LOAD PREFETCHES:          0 PREFETCH ISSUED TO LOWER LEVEL:          0  ACCURACY: -nan
L1I TIMELY PREFETCHES:          0 LATE PREFETCHES: 0 DROPPED PREFETCHES: 0
L1I PREFETCHES SAME FILL-ORIGIN LEVEL: 0 DIFFERENT FILL-ORIGIN LEVEL: 0
L1I AVERAGE MISS LATENCY: 16.6105 cycles
L1I RQ	ACCESS:   58629485	FORWARD:          0	MERGED:   17775402	TO_CACHE:   40854083

BTB TOTAL     ACCESS:   30413091  HIT:   18271054  MISS:   12142037  HIT %:    60.0763  MISS %:    39.9237   MPKI: 60.7102
BTB BRANCH_DIRECT_JUMP	ACCESS:    2033451  HIT:    1204611  MISS:     828840
BTB BRANCH_INDIRECT	ACCESS:   12129860  HIT:    7449972  MISS:    4679888
BTB BRANCH_CONDITIONAL	ACCESS:    7365128  HIT:    6117133  MISS:    1247995
BTB BRANCH_DIRECT_CALL	ACCESS:    3753651  HIT:    1796881  MISS:    1956770
BTB BRANCH_INDIRECT_CALL	ACCESS:     688651  HIT:     311222  MISS:     377429
BTB BRANCH_RETURN	ACCESS:    4442350  HIT:    1391235  MISS:    3051115
BTB BRANCH_OTHER ACCESS:          0  HIT:          0  MISS:          0

L2C TOTAL     ACCESS:   16393987  HIT:   14930551  MISS:    1463436  HIT %:    91.0733  MISS %:    8.92666   MPKI: 7.31718
L2C LOAD      ACCESS:   11685065  HIT:   10621663  MISS:    1063402  HIT %:    90.8995  MISS %:    9.10052   MPKI: 5.31701
L2C DATA LOAD MPKI: 1.19859
L2C INSTRUCTION LOAD MPKI: 4.11841
L2C RFO       ACCESS:     996452  HIT:     819393  MISS:     177059  HIT %:    82.2311  MISS %:    17.7689   MPKI: 0.885295
L2C PREFETCH  ACCESS:    1393952  HIT:    1260849  MISS:     133103  HIT %:    90.4514  MISS %:    9.54861   MPKI: 0.665515
AGUS PREFETCH L1 MISS: 0
L2C DATA PREFETCH MPKI: 0.665515
L2C INSTRUCTION PREFETCH MPKI: 0
L2C WRITEBACK ACCESS:    1903249  HIT:    1849554  MISS:      53695  HIT %:    97.1788  MISS %:    2.82123   MPKI: 0.268475
L2C LOAD TRANSLATION ACCESS:      10691  HIT:       3816  MISS:       6875  HIT %:    35.6936  MISS %:    64.3064   MPKI: 0.034375
L2C TRANSLATION FROM L1D PREFETCHER ACCESS:     404578  HIT:     375276  MISS:      29302  HIT %:    92.7574  MISS %:    7.24261   MPKI: 0.14651
L2C PREFETCH  REQUESTED:          0  ISSUED:          0  USEFUL:      28056  USELESS:     134180
L2C USEFUL LOAD PREFETCHES:      28056 PREFETCH ISSUED TO LOWER LEVEL:     133103  ACCURACY: 21.0784
L2C TIMELY PREFETCHES:      28056 LATE PREFETCHES: 0 DROPPED PREFETCHES: 0
L2C PREFETCHES SAME FILL-ORIGIN LEVEL: 0 DIFFERENT FILL-ORIGIN LEVEL: 0
L2C AVERAGE MISS LATENCY: 38.2618 cycles
L2C RQ	ACCESS:   13096811	FORWARD:          0	MERGED:          0	TO_CACHE:   13096786
L2C WQ	ACCESS:    1903249	FORWARD:         32	MERGED:          0	TO_CACHE:    1903249
L2C PQ	ACCESS:    1393959	FORWARD:          0	MERGED:          0	TO_CACHE:    1393952

L2C Instructions Evicting Data 302162
L2C Translations Evicting Data 16891
L2C Data Evicting Data 262591
L2C Instructions Evicting Instructions 502802
L2C Translations Evicting Instructions 18331
L2C Data Evicting Instructions 271442
L2C Instructions Evicting Translations 18719
L2C Translations Evicting Translations 955
L2C Data Evicting Translations 15848
L2C Dense regions hint from L2: 0
PSCL5 TOTAL     ACCESS:     286804  HIT:     286804  MISS:          0  HIT %:        100  MISS %:          0   MPKI: 0
PSCL5 LOAD TRANSLATION ACCESS:       9936  HIT:       9936  MISS:          0  HIT %:        100  MISS %:          0   MPKI: 0
PSCL5 TRANSLATION FROM L1D PREFETCHER ACCESS:     276868  HIT:     276868  MISS:          0  HIT %:        100  MISS %:          0   MPKI: 0
PSCL5 PREFETCH  REQUESTED:          0  ISSUED:          0  USEFUL:          0  USELESS:          0
PSCL5 USEFUL LOAD PREFETCHES:          0 PREFETCH ISSUED TO LOWER LEVEL:          0  ACCURACY: -nan
PSCL5 TIMELY PREFETCHES:          0 LATE PREFETCHES: 0 DROPPED PREFETCHES: 0
PSCL5 PREFETCHES SAME FILL-ORIGIN LEVEL: 0 DIFFERENT FILL-ORIGIN LEVEL: 0

PSCL4 TOTAL     ACCESS:     193649  HIT:     193589  MISS:         60  HIT %:     99.969  MISS %:  0.0309839   MPKI: 0.0003
PSCL4 LOAD TRANSLATION ACCESS:       8236  HIT:       8176  MISS:         60  HIT %:    99.2715  MISS %:   0.728509   MPKI: 0.0003
PSCL4 TRANSLATION FROM L1D PREFETCHER ACCESS:     185413  HIT:     185413  MISS:          0  HIT %:        100  MISS %:          0   MPKI: 0
PSCL4 PREFETCH  REQUESTED:          0  ISSUED:          0  USEFUL:          0  USELESS:          0
PSCL4 USEFUL LOAD PREFETCHES:          0 PREFETCH ISSUED TO LOWER LEVEL:          0  ACCURACY: -nan
PSCL4 TIMELY PREFETCHES:          0 LATE PREFETCHES: 0 DROPPED PREFETCHES: 0
PSCL4 PREFETCHES SAME FILL-ORIGIN LEVEL: 0 DIFFERENT FILL-ORIGIN LEVEL: 0

PSCL3 TOTAL     ACCESS:     214475  HIT:     214366  MISS:        109  HIT %:    99.9492  MISS %:  0.0508218   MPKI: 0.000545
PSCL3 LOAD TRANSLATION ACCESS:       9331  HIT:       9222  MISS:        109  HIT %:    98.8319  MISS %:    1.16815   MPKI: 0.000545
PSCL3 TRANSLATION FROM L1D PREFETCHER ACCESS:     205144  HIT:     205144  MISS:          0  HIT %:        100  MISS %:          0   MPKI: 0
PSCL3 PREFETCH  REQUESTED:          0  ISSUED:          0  USEFUL:          0  USELESS:          0
PSCL3 USEFUL LOAD PREFETCHES:          0 PREFETCH ISSUED TO LOWER LEVEL:          0  ACCURACY: -nan
PSCL3 TIMELY PREFETCHES:          0 LATE PREFETCHES: 0 DROPPED PREFETCHES: 0
PSCL3 PREFETCHES SAME FILL-ORIGIN LEVEL: 0 DIFFERENT FILL-ORIGIN LEVEL: 0

PSCL2 TOTAL     ACCESS:      77648  HIT:      76964  MISS:        684  HIT %:    99.1191  MISS %:   0.880898   MPKI: 0.00342
PSCL2 LOAD TRANSLATION ACCESS:      10017  HIT:       9333  MISS:        684  HIT %:    93.1716  MISS %:    6.82839   MPKI: 0.00342
PSCL2 TRANSLATION FROM L1D PREFETCHER ACCESS:      67631  HIT:      67631  MISS:          0  HIT %:        100  MISS %:          0   MPKI: 0
PSCL2 PREFETCH  REQUESTED:          0  ISSUED:          0  USEFUL:          0  USELESS:          0
PSCL2 USEFUL LOAD PREFETCHES:          0 PREFETCH ISSUED TO LOWER LEVEL:          0  ACCURACY: -nan
PSCL2 TIMELY PREFETCHES:          0 LATE PREFETCHES: 0 DROPPED PREFETCHES: 0
PSCL2 PREFETCHES SAME FILL-ORIGIN LEVEL: 0 DIFFERENT FILL-ORIGIN LEVEL: 0

LLC TOTAL     ACCESS:    1663170  HIT:    1576657  MISS:      86513  HIT %:    94.7983  MISS %:    5.20169   MPKI: 0.432565
LLC LOAD      ACCESS:    1063399  HIT:    1032664  MISS:      30735  HIT %:    97.1097  MISS %:    2.89026   MPKI: 0.153675
LLC RFO       ACCESS:     177056  HIT:     135391  MISS:      41665  HIT %:    76.4679  MISS %:    23.5321   MPKI: 0.208325
LLC PREFETCH  ACCESS:     133102  HIT:     121076  MISS:      12026  HIT %:    90.9648  MISS %:    9.03518   MPKI: 0.06013
AGUS PREFETCH L1 MISS: 0
LLC WRITEBACK ACCESS:     253436  HIT:     252603  MISS:        833  HIT %:    99.6713  MISS %:   0.328683   MPKI: 0.004165
LLC LOAD TRANSLATION ACCESS:       6875  HIT:       6600  MISS:        275  HIT %:         96  MISS %:          4   MPKI: 0.001375
LLC TRANSLATION FROM L1D PREFETCHER ACCESS:      29302  HIT:      28323  MISS:        979  HIT %:    96.6589  MISS %:    3.34107   MPKI: 0.004895
LLC PREFETCH  REQUESTED:          0  ISSUED:          0  USEFUL:       1955  USELESS:      10370
LLC USEFUL LOAD PREFETCHES:       1955 PREFETCH ISSUED TO LOWER LEVEL:      12026  ACCURACY: 16.2564
LLC TIMELY PREFETCHES:       1955 LATE PREFETCHES: 0 DROPPED PREFETCHES: 0
LLC PREFETCHES SAME FILL-ORIGIN LEVEL: 0 DIFFERENT FILL-ORIGIN LEVEL: 0
LLC AVERAGE MISS LATENCY: 158.069 cycles
LLC RQ	ACCESS:    1276638	FORWARD:          0	MERGED:          0	TO_CACHE:    1276632
LLC WQ	ACCESS:     253436	FORWARD:          7	MERGED:          0	TO_CACHE:     253436
LLC PQ	ACCESS:     133103	FORWARD:          0	MERGED:          0	TO_CACHE:     133102

LLC Dense regions hint to LLC: 0

RAW hits: 1784903
Loads Generated: 49042991
Loads sent to L1D: 47258086
Stores Generated: 26938645
Stores sent to L1D: 26938645
Major fault: 0 Minor fault: 2563
Allocated PAGES: 2563
Completed 

DRAM Statistics
 CHANNEL 0
 RQ ROW_BUFFER_HIT:      30630  ROW_BUFFER_MISS:      55016
 DBUS_CONGESTED:         42
 WQ ROW_BUFFER_HIT:       3997  ROW_BUFFER_MISS:      40763  FULL:          0

 AVG_CONGESTED_CYCLE: 5
 All warmup complete: 2
Channel 0 Bank busy for read cycles: 0
Channel 0 Bank busy for write cycles: 0
Channel 0
Rank 0
0banks busy for read cycles: 606230857
0banks busy for write cycles: 12940
1banks busy for read cycles: 3012962
1banks busy for write cycles: 1670082
2banks busy for read cycles: 499605
2banks busy for write cycles: 335509
3banks busy for read cycles: 245894
3banks busy for write cycles: 164379
4banks busy for read cycles: 179914
4banks busy for write cycles: 123830
5banks busy for read cycles: 136135
5banks busy for write cycles: 110434
6banks busy for read cycles: 129069
6banks busy for write cycles: 107944
7banks busy for read cycles: 129473
7banks busy for write cycles: 115468
8banks busy for read cycles: 247987
8banks busy for write cycles: 271721

CPU 0 Branch Prediction Accuracy: 99.8625% MPKI: 0.24407 Average ROB Occupancy at Mispredict: 29.7958
Branch types
NOT_BRANCH: 164508673 82.2543%
BRANCH_DIRECT_JUMP: 2033451 1.01673%
BRANCH_INDIRECT: 12129860 6.06493%
BRANCH_CONDITIONAL: 12443472 6.22174%
BRANCH_DIRECT_CALL: 3753651 1.87683%
BRANCH_INDIRECT_CALL: 688651 0.344325%
BRANCH_RETURN: 4442350 2.22117%
BRANCH_OTHER: 0 0%

DRAM PAGES: 1048576
Allocated PAGES: 2563
