
*** ChampSim Multicore Out-of-Order Simulator ***

Warmup Instructions: 50000000
Simulation Instructions: 200000000
Number of CPUs: 1
LLC sets: 2048
LLC ways: 16
Off-chip DRAM Size: 4096 MB Channels: 1 Width: 64-bit Data Rate: 6400 MT/s
CPU 0 runs traces/spec2k17/server_030.champsimtrace.xz
.xz
BTB has LRU replacement policy
ITLB has LRU replacement policy
DTLB has LRU replacement policy
STLB has LRU replacement policy
L1I has LRU replacement policy
L1D has LRU replacement policy
Initialize SRRIP state for L2C
Initialize DRRIP state for LLC
Heartbeat CPU 0 instructions: 10000003 cycles: 2858192 heartbeat IPC: 3.49872 cumulative IPC: 3.49872 (Simulation time: 0 hr 0 min 48 sec) 
Heartbeat CPU 0 instructions: 20000001 cycles: 5707991 heartbeat IPC: 3.50902 cumulative IPC: 3.50386 (Simulation time: 0 hr 1 min 17 sec) 
Heartbeat CPU 0 instructions: 30000001 cycles: 8562076 heartbeat IPC: 3.50375 cumulative IPC: 3.50382 (Simulation time: 0 hr 1 min 45 sec) 
Heartbeat CPU 0 instructions: 40000002 cycles: 11420833 heartbeat IPC: 3.49802 cumulative IPC: 3.50237 (Simulation time: 0 hr 2 min 21 sec) 
Heartbeat CPU 0 instructions: 50000003 cycles: 14286039 heartbeat IPC: 3.49015 cumulative IPC: 3.49992 (Simulation time: 0 hr 2 min 51 sec) 

Warmup complete CPU 0 instructions: 50000003 cycles: 14286039 (Simulation time: 0 hr 2 min 51 sec) 

Heartbeat CPU 0 instructions: 60000001 cycles: 47010622 heartbeat IPC: 0.305581 cumulative IPC: 0.305581 (Simulation time: 0 hr 3 min 57 sec) 
Heartbeat CPU 0 instructions: 70000000 cycles: 79536948 heartbeat IPC: 0.307443 cumulative IPC: 0.306509 (Simulation time: 0 hr 4 min 45 sec) 
Heartbeat CPU 0 instructions: 80000000 cycles: 112039118 heartbeat IPC: 0.307672 cumulative IPC: 0.306896 (Simulation time: 0 hr 5 min 40 sec) 
*** Reached end of trace for Core: 0 Repeating trace: traces/spec2k17/server_030.champsimtrace.xz
Heartbeat CPU 0 instructions: 90000000 cycles: 144314071 heartbeat IPC: 0.309838 cumulative IPC: 0.307626 (Simulation time: 0 hr 6 min 42 sec) 
Heartbeat CPU 0 instructions: 100000003 cycles: 176655363 heartbeat IPC: 0.309202 cumulative IPC: 0.30794 (Simulation time: 0 hr 7 min 50 sec) 
Heartbeat CPU 0 instructions: 110000000 cycles: 208885086 heartbeat IPC: 0.310273 cumulative IPC: 0.308326 (Simulation time: 0 hr 8 min 57 sec) 
Heartbeat CPU 0 instructions: 120000002 cycles: 241203173 heartbeat IPC: 0.309424 cumulative IPC: 0.308483 (Simulation time: 0 hr 10 min 1 sec) 
Heartbeat CPU 0 instructions: 130000003 cycles: 273462356 heartbeat IPC: 0.309989 cumulative IPC: 0.30867 (Simulation time: 0 hr 11 min 7 sec) 
Heartbeat CPU 0 instructions: 140000002 cycles: 305777098 heartbeat IPC: 0.309456 cumulative IPC: 0.308757 (Simulation time: 0 hr 12 min 14 sec) 
Heartbeat CPU 0 instructions: 150000002 cycles: 338038419 heartbeat IPC: 0.309969 cumulative IPC: 0.308878 (Simulation time: 0 hr 13 min 21 sec) 
Heartbeat CPU 0 instructions: 160000000 cycles: 370207534 heartbeat IPC: 0.310857 cumulative IPC: 0.309057 (Simulation time: 0 hr 14 min 12 sec) 
Heartbeat CPU 0 instructions: 170000000 cycles: 402414898 heartbeat IPC: 0.310488 cumulative IPC: 0.309176 (Simulation time: 0 hr 15 min 4 sec) 
*** Reached end of trace for Core: 0 Repeating trace: traces/spec2k17/server_030.champsimtrace.xz
Heartbeat CPU 0 instructions: 180000003 cycles: 434581290 heartbeat IPC: 0.310884 cumulative IPC: 0.309306 (Simulation time: 0 hr 16 min 0 sec) 
Heartbeat CPU 0 instructions: 190000002 cycles: 466902247 heartbeat IPC: 0.309397 cumulative IPC: 0.309313 (Simulation time: 0 hr 17 min 2 sec) 
Heartbeat CPU 0 instructions: 200000000 cycles: 499086577 heartbeat IPC: 0.31071 cumulative IPC: 0.309406 (Simulation time: 0 hr 18 min 3 sec) 
Heartbeat CPU 0 instructions: 210000000 cycles: 531358427 heartbeat IPC: 0.309868 cumulative IPC: 0.309434 (Simulation time: 0 hr 19 min 0 sec) 
Heartbeat CPU 0 instructions: 220000000 cycles: 563621143 heartbeat IPC: 0.309955 cumulative IPC: 0.309465 (Simulation time: 0 hr 19 min 57 sec) 
Heartbeat CPU 0 instructions: 230000000 cycles: 595891621 heartbeat IPC: 0.309881 cumulative IPC: 0.309488 (Simulation time: 0 hr 20 min 50 sec) 
Heartbeat CPU 0 instructions: 240000002 cycles: 628127595 heartbeat IPC: 0.310212 cumulative IPC: 0.309526 (Simulation time: 0 hr 21 min 55 sec) 
Heartbeat CPU 0 instructions: 250000000 cycles: 660286088 heartbeat IPC: 0.31096 cumulative IPC: 0.309597 (Simulation time: 0 hr 22 min 55 sec) 
Finished CPU 0 instructions: 200000001 cycles: 646000050 cumulative IPC: 0.309597 (Simulation time: 0 hr 22 min 55 sec) 

ChampSim completed all CPUs

Region of Interest Statistics

CPU 0 cumulative IPC: 0.309597 instructions: 200000001 cycles: 646000050
ITLB TOTAL     ACCESS:   35743445  HIT:   33515719  MISS:    2227726  HIT %:    93.7675  MISS %:    6.23254   MPKI: 11.1386
ITLB LOAD TRANSLATION ACCESS:   35743445  HIT:   33515719  MISS:    2227726  HIT %:    93.7675  MISS %:    6.23254   MPKI: 11.1386
ITLB PREFETCH  REQUESTED:          0  ISSUED:          0  USEFUL:          0  USELESS:          0
ITLB USEFUL LOAD PREFETCHES:          0 PREFETCH ISSUED TO LOWER LEVEL:          0  ACCURACY: -nan
ITLB TIMELY PREFETCHES:          0 LATE PREFETCHES: 0 DROPPED PREFETCHES: 0
ITLB PREFETCHES SAME FILL-ORIGIN LEVEL: 0 DIFFERENT FILL-ORIGIN LEVEL: 0
ITLB AVERAGE MISS LATENCY: 9.16288 cycles
ITLB RQ	ACCESS:   41987118	FORWARD:          0	MERGED:    5717021	TO_CACHE:   36270097

DTLB TOTAL     ACCESS:   45724769  HIT:   43697616  MISS:    2027153  HIT %:    95.5666  MISS %:    4.43338   MPKI: 10.1358
DTLB LOAD TRANSLATION ACCESS:   45724769  HIT:   43697616  MISS:    2027153  HIT %:    95.5666  MISS %:    4.43338   MPKI: 10.1358
DTLB PREFETCH  REQUESTED:          0  ISSUED:          0  USEFUL:          0  USELESS:          0
DTLB USEFUL LOAD PREFETCHES:          0 PREFETCH ISSUED TO LOWER LEVEL:          0  ACCURACY: -nan
DTLB TIMELY PREFETCHES:          0 LATE PREFETCHES: 0 DROPPED PREFETCHES: 0
DTLB PREFETCHES SAME FILL-ORIGIN LEVEL: 0 DIFFERENT FILL-ORIGIN LEVEL: 0
DTLB AVERAGE MISS LATENCY: 8.34134 cycles
DTLB RQ	ACCESS:   60422686	FORWARD:          0	MERGED:   14638951	TO_CACHE:   45783735

STLB TOTAL     ACCESS:   22972344  HIT:   22943887  MISS:      28457  HIT %:    99.8761  MISS %:   0.123875   MPKI: 0.142285
STLB LOAD TRANSLATION ACCESS:    4254879  HIT:    4228349  MISS:      26530  HIT %:    99.3765  MISS %:   0.623519   MPKI: 0.13265
STLB TRANSLATION FROM L1D PREFETCHER ACCESS:   18717465  HIT:   18715538  MISS:       1927  HIT %:    99.9897  MISS %:  0.0102952   MPKI: 0.009635
STLB PREFETCH  REQUESTED:          0  ISSUED:          0  USEFUL:       1687  USELESS:        234
STLB USEFUL LOAD PREFETCHES:       1687 PREFETCH ISSUED TO LOWER LEVEL:          0  ACCURACY: inf
STLB TIMELY PREFETCHES:       1687 LATE PREFETCHES: 689 DROPPED PREFETCHES: 274809
STLB PREFETCHES SAME FILL-ORIGIN LEVEL: 0 DIFFERENT FILL-ORIGIN LEVEL: 0
STLB AVERAGE MISS LATENCY: 28.3714 cycles
STLB RQ	ACCESS:   26459974	FORWARD:          0	MERGED:    3211037	TO_CACHE:   23248937

STLB Hit, L1D data hit: 0
STLB Hit, L2C data hit: 0
STLB Hit, LLC data hit: 0
STLB Hit, LLC data miss: 0
STLB STLB hints to L2: 0
L1D TOTAL     ACCESS:   79155985  HIT:   73093736  MISS:    6062249  HIT %:    92.3414  MISS %:    7.65861   MPKI: 30.3112
L1D LOAD      ACCESS:   34013448  HIT:   30603051  MISS:    3410397  HIT %:    89.9734  MISS %:    10.0266   MPKI: 17.052
L1D RFO       ACCESS:   24726645  HIT:   23630017  MISS:    1096628  HIT %:     95.565  MISS %:    4.43501   MPKI: 5.48314
L1D PREFETCH  ACCESS:   20415892  HIT:   18860668  MISS:    1555224  HIT %:    92.3823  MISS %:    7.61771   MPKI: 7.77612
AGUS PREFETCH L1 MISS: 0
L1D PREFETCH  REQUESTED:   48004525  ISSUED:   48004474  USEFUL:    1168660  USELESS:     386524
L1D USEFUL LOAD PREFETCHES:    1168660 PREFETCH ISSUED TO LOWER LEVEL:    2213631  ACCURACY: 52.7938
L1D TIMELY PREFETCHES:    1168660 LATE PREFETCHES: 651192 DROPPED PREFETCHES: 307918
L1D PREFETCHES SAME FILL-ORIGIN LEVEL: 2213631 DIFFERENT FILL-ORIGIN LEVEL: 0
L1D AVERAGE MISS LATENCY: 3.96213e+07 cycles
L1D RQ	ACCESS:   46429205	FORWARD:          0	MERGED:   11996454	TO_CACHE:   34114394
L1D WQ	ACCESS:   26448215	FORWARD:     353211	MERGED:     139923	TO_CACHE:   26308292
L1D PQ	ACCESS:   25799379	FORWARD:          0	MERGED:    3559430	TO_CACHE:   22205095

L1D UNIQUE REGIONS ACCESSED: 0
L1D REGIONS CONFLICTS: 0
L1D Cross Page Prefetch Requests: 17180764
L1D Same Page Prefetch Requests: 10443137
L1D ROI Sum of L1D PQ occupancy: 308600548
L1D PREFETCHES PUSHED FROM L2C: 0
L1I TOTAL     ACCESS:   40329748  HIT:   29009133  MISS:   11320615  HIT %:    71.9299  MISS %:    28.0701   MPKI: 56.6031
L1I LOAD      ACCESS:   40329748  HIT:   29009133  MISS:   11320615  HIT %:    71.9299  MISS %:    28.0701   MPKI: 56.6031
L1I PREFETCH  REQUESTED:          0  ISSUED:          0  USEFUL:          0  USELESS:          0
L1I USEFUL LOAD PREFETCHES:          0 PREFETCH ISSUED TO LOWER LEVEL:          0  ACCURACY: -nan
L1I TIMELY PREFETCHES:          0 LATE PREFETCHES: 0 DROPPED PREFETCHES: 0
L1I PREFETCHES SAME FILL-ORIGIN LEVEL: 0 DIFFERENT FILL-ORIGIN LEVEL: 0
L1I AVERAGE MISS LATENCY: 16.221 cycles
L1I RQ	ACCESS:   58187264	FORWARD:          0	MERGED:   16200146	TO_CACHE:   41987118

BTB TOTAL     ACCESS:   30343389  HIT:   17609552  MISS:   12733837  HIT %:    58.0342  MISS %:    41.9658   MPKI: 63.6692
BTB BRANCH_DIRECT_JUMP	ACCESS:    1883728  HIT:    1042713  MISS:     841015
BTB BRANCH_INDIRECT	ACCESS:   11966225  HIT:    7097112  MISS:    4869113
BTB BRANCH_CONDITIONAL	ACCESS:    7323946  HIT:    6018929  MISS:    1305017
BTB BRANCH_DIRECT_CALL	ACCESS:    3854734  HIT:    1768910  MISS:    2085824
BTB BRANCH_INDIRECT_CALL	ACCESS:     730020  HIT:     347975  MISS:     382045
BTB BRANCH_RETURN	ACCESS:    4584736  HIT:    1333913  MISS:    3250823
BTB BRANCH_OTHER ACCESS:          0  HIT:          0  MISS:          0

L2C TOTAL     ACCESS:   20076872  HIT:   18731398  MISS:    1345474  HIT %:    93.2984  MISS %:    6.70161   MPKI: 6.72737
L2C LOAD      ACCESS:   14079670  HIT:   13015456  MISS:    1064214  HIT %:    92.4415  MISS %:    7.55852   MPKI: 5.32107
L2C DATA LOAD MPKI: 1.29147
L2C INSTRUCTION LOAD MPKI: 4.0296
L2C RFO       ACCESS:    1089412  HIT:    1004055  MISS:      85357  HIT %:    92.1649  MISS %:    7.83514   MPKI: 0.426785
L2C PREFETCH  ACCESS:    2213538  HIT:    2081212  MISS:     132326  HIT %:     94.022  MISS %:    5.97803   MPKI: 0.66163
AGUS PREFETCH L1 MISS: 0
L2C DATA PREFETCH MPKI: 0.66163
L2C INSTRUCTION PREFETCH MPKI: 0
L2C WRITEBACK ACCESS:    2307270  HIT:    2275532  MISS:      31738  HIT %:    98.6244  MISS %:    1.37557   MPKI: 0.15869
L2C LOAD TRANSLATION ACCESS:      26802  HIT:      20193  MISS:       6609  HIT %:    75.3414  MISS %:    24.6586   MPKI: 0.033045
L2C TRANSLATION FROM L1D PREFETCHER ACCESS:     360180  HIT:     334950  MISS:      25230  HIT %:    92.9952  MISS %:    7.00483   MPKI: 0.12615
L2C PREFETCH  REQUESTED:          0  ISSUED:          0  USEFUL:      21391  USELESS:     136152
L2C USEFUL LOAD PREFETCHES:      21391 PREFETCH ISSUED TO LOWER LEVEL:     132326  ACCURACY: 16.1654
L2C TIMELY PREFETCHES:      21391 LATE PREFETCHES: 0 DROPPED PREFETCHES: 0
L2C PREFETCHES SAME FILL-ORIGIN LEVEL: 0 DIFFERENT FILL-ORIGIN LEVEL: 0
L2C AVERAGE MISS LATENCY: 31.7468 cycles
L2C RQ	ACCESS:   15556216	FORWARD:          0	MERGED:          0	TO_CACHE:   15556065
L2C WQ	ACCESS:    2307270	FORWARD:        244	MERGED:          0	TO_CACHE:    2307270
L2C PQ	ACCESS:    2213631	FORWARD:          0	MERGED:          0	TO_CACHE:    2213538

L2C Instructions Evicting Data 275171
L2C Translations Evicting Data 15474
L2C Data Evicting Data 207236
L2C Instructions Evicting Instructions 515400
L2C Translations Evicting Instructions 14784
L2C Data Evicting Instructions 255026
L2C Instructions Evicting Translations 15349
L2C Translations Evicting Translations 1581
L2C Data Evicting Translations 13715
L2C Dense regions hint from L2: 0
PSCL5 TOTAL     ACCESS:     302780  HIT:     302780  MISS:          0  HIT %:        100  MISS %:          0   MPKI: 0
PSCL5 LOAD TRANSLATION ACCESS:      25848  HIT:      25848  MISS:          0  HIT %:        100  MISS %:          0   MPKI: 0
PSCL5 TRANSLATION FROM L1D PREFETCHER ACCESS:     276932  HIT:     276932  MISS:          0  HIT %:        100  MISS %:          0   MPKI: 0
PSCL5 PREFETCH  REQUESTED:          0  ISSUED:          0  USEFUL:          0  USELESS:          0
PSCL5 USEFUL LOAD PREFETCHES:          0 PREFETCH ISSUED TO LOWER LEVEL:          0  ACCURACY: -nan
PSCL5 TIMELY PREFETCHES:          0 LATE PREFETCHES: 0 DROPPED PREFETCHES: 0
PSCL5 PREFETCHES SAME FILL-ORIGIN LEVEL: 0 DIFFERENT FILL-ORIGIN LEVEL: 0

PSCL4 TOTAL     ACCESS:     183918  HIT:     183871  MISS:         47  HIT %:    99.9744  MISS %:  0.0255549   MPKI: 0.000235
PSCL4 LOAD TRANSLATION ACCESS:      18944  HIT:      18897  MISS:         47  HIT %:    99.7519  MISS %:     0.2481   MPKI: 0.000235
PSCL4 TRANSLATION FROM L1D PREFETCHER ACCESS:     164974  HIT:     164974  MISS:          0  HIT %:        100  MISS %:          0   MPKI: 0
PSCL4 PREFETCH  REQUESTED:          0  ISSUED:          0  USEFUL:          0  USELESS:          0
PSCL4 USEFUL LOAD PREFETCHES:          0 PREFETCH ISSUED TO LOWER LEVEL:          0  ACCURACY: -nan
PSCL4 TIMELY PREFETCHES:          0 LATE PREFETCHES: 0 DROPPED PREFETCHES: 0
PSCL4 PREFETCHES SAME FILL-ORIGIN LEVEL: 0 DIFFERENT FILL-ORIGIN LEVEL: 0

PSCL3 TOTAL     ACCESS:     235500  HIT:     235443  MISS:         57  HIT %:    99.9758  MISS %:  0.0242038   MPKI: 0.000285
PSCL3 LOAD TRANSLATION ACCESS:      25046  HIT:      24989  MISS:         57  HIT %:    99.7724  MISS %:   0.227581   MPKI: 0.000285
PSCL3 TRANSLATION FROM L1D PREFETCHER ACCESS:     210454  HIT:     210454  MISS:          0  HIT %:        100  MISS %:          0   MPKI: 0
PSCL3 PREFETCH  REQUESTED:          0  ISSUED:          0  USEFUL:          0  USELESS:          0
PSCL3 USEFUL LOAD PREFETCHES:          0 PREFETCH ISSUED TO LOWER LEVEL:          0  ACCURACY: -nan
PSCL3 TIMELY PREFETCHES:          0 LATE PREFETCHES: 0 DROPPED PREFETCHES: 0
PSCL3 PREFETCHES SAME FILL-ORIGIN LEVEL: 0 DIFFERENT FILL-ORIGIN LEVEL: 0

PSCL2 TOTAL     ACCESS:     131860  HIT:     130878  MISS:        982  HIT %:    99.2553  MISS %:   0.744729   MPKI: 0.00491
PSCL2 LOAD TRANSLATION ACCESS:      25969  HIT:      24987  MISS:        982  HIT %:    96.2186  MISS %:    3.78143   MPKI: 0.00491
PSCL2 TRANSLATION FROM L1D PREFETCHER ACCESS:     105891  HIT:     105891  MISS:          0  HIT %:        100  MISS %:          0   MPKI: 0
PSCL2 PREFETCH  REQUESTED:          0  ISSUED:          0  USEFUL:          0  USELESS:          0
PSCL2 USEFUL LOAD PREFETCHES:          0 PREFETCH ISSUED TO LOWER LEVEL:          0  ACCURACY: -nan
PSCL2 TIMELY PREFETCHES:          0 LATE PREFETCHES: 0 DROPPED PREFETCHES: 0
PSCL2 PREFETCHES SAME FILL-ORIGIN LEVEL: 0 DIFFERENT FILL-ORIGIN LEVEL: 0

LLC TOTAL     ACCESS:    1440599  HIT:    1417020  MISS:      23579  HIT %:    98.3633  MISS %:    1.63675   MPKI: 0.117895
LLC LOAD      ACCESS:    1064214  HIT:    1051719  MISS:      12495  HIT %:    98.8259  MISS %:    1.17411   MPKI: 0.062475
LLC RFO       ACCESS:      85355  HIT:      80861  MISS:       4494  HIT %:    94.7349  MISS %:    5.26507   MPKI: 0.02247
LLC PREFETCH  ACCESS:     132326  HIT:     126492  MISS:       5834  HIT %:    95.5912  MISS %:    4.40881   MPKI: 0.02917
AGUS PREFETCH L1 MISS: 0
LLC WRITEBACK ACCESS:     126864  HIT:     126687  MISS:        177  HIT %:    99.8605  MISS %:   0.139519   MPKI: 0.000885
LLC LOAD TRANSLATION ACCESS:       6609  HIT:       6545  MISS:         64  HIT %:    99.0316  MISS %:   0.968376   MPKI: 0.00032
LLC TRANSLATION FROM L1D PREFETCHER ACCESS:      25231  HIT:      24716  MISS:        515  HIT %:    97.9589  MISS %:    2.04114   MPKI: 0.002575
LLC PREFETCH  REQUESTED:          0  ISSUED:          0  USEFUL:       3220  USELESS:       4020
LLC USEFUL LOAD PREFETCHES:       3220 PREFETCH ISSUED TO LOWER LEVEL:       5834  ACCURACY: 55.1937
LLC TIMELY PREFETCHES:       3220 LATE PREFETCHES: 0 DROPPED PREFETCHES: 0
LLC PREFETCHES SAME FILL-ORIGIN LEVEL: 0 DIFFERENT FILL-ORIGIN LEVEL: 0
LLC AVERAGE MISS LATENCY: 139.964 cycles
LLC RQ	ACCESS:    1181411	FORWARD:          0	MERGED:          0	TO_CACHE:    1181409
LLC WQ	ACCESS:     126864	FORWARD:          2	MERGED:          0	TO_CACHE:     126864
LLC PQ	ACCESS:     132326	FORWARD:          0	MERGED:          0	TO_CACHE:     132326

LLC Dense regions hint to LLC: 0

RAW hits: 1417051
Loads Generated: 47846258
Loads sent to L1D: 46429205
Stores Generated: 26448220
Stores sent to L1D: 26448215
Major fault: 0 Minor fault: 2136
Allocated PAGES: 2136
Completed 

DRAM Statistics
 CHANNEL 0
 RQ ROW_BUFFER_HIT:       8177  ROW_BUFFER_MISS:      15224
 DBUS_CONGESTED:         12
 WQ ROW_BUFFER_HIT:        341  ROW_BUFFER_MISS:       3926  FULL:          0

 AVG_CONGESTED_CYCLE: 5
 All warmup complete: 2
Channel 0 Bank busy for read cycles: 0
Channel 0 Bank busy for write cycles: 0
Channel 0
Rank 0
0banks busy for read cycles: 643976995
0banks busy for write cycles: 2326
1banks busy for read cycles: 1194798
1banks busy for write cycles: 301340
2banks busy for read cycles: 163030
2banks busy for write cycles: 52543
3banks busy for read cycles: 73871
3banks busy for write cycles: 28026
4banks busy for read cycles: 49905
4banks busy for write cycles: 15063
5banks busy for read cycles: 34993
5banks busy for write cycles: 10589
6banks busy for read cycles: 28562
6banks busy for write cycles: 5859
7banks busy for read cycles: 26564
7banks busy for write cycles: 4784
8banks busy for read cycles: 27395
8banks busy for write cycles: 3408

CPU 0 Branch Prediction Accuracy: 99.878% MPKI: 0.219635 Average ROB Occupancy at Mispredict: 30.3088
Branch types
NOT_BRANCH: 164000674 82.0003%
BRANCH_DIRECT_JUMP: 1883728 0.941864%
BRANCH_INDIRECT: 11966225 5.98311%
BRANCH_CONDITIONAL: 12979997 6.49%
BRANCH_DIRECT_CALL: 3854734 1.92737%
BRANCH_INDIRECT_CALL: 730020 0.36501%
BRANCH_RETURN: 4584736 2.29237%
BRANCH_OTHER: 0 0%

DRAM PAGES: 1048576
Allocated PAGES: 2136
