
*** ChampSim Multicore Out-of-Order Simulator ***

Warmup Instructions: 50000000
Simulation Instructions: 200000000
Number of CPUs: 1
LLC sets: 2048
LLC ways: 16
Off-chip DRAM Size: 4096 MB Channels: 1 Width: 64-bit Data Rate: 6400 MT/s
CPU 0 runs traces/spec2k17/srv_41.champsimtrace.xz
.xz
BTB has LRU replacement policy
ITLB has LRU replacement policy
DTLB has LRU replacement policy
STLB has LRU replacement policy
L1I has LRU replacement policy
L1D has LRU replacement policy
Initialize SRRIP state for L2C
Initialize DRRIP state for LLC
Heartbeat CPU 0 instructions: 10000000 cycles: 2869649 heartbeat IPC: 3.48475 cumulative IPC: 3.48475 (Simulation time: 0 hr 0 min 26 sec) 
Heartbeat CPU 0 instructions: 20000003 cycles: 5730716 heartbeat IPC: 3.4952 cumulative IPC: 3.48997 (Simulation time: 0 hr 0 min 53 sec) 
Heartbeat CPU 0 instructions: 30000002 cycles: 8608478 heartbeat IPC: 3.47492 cumulative IPC: 3.48494 (Simulation time: 0 hr 1 min 22 sec) 
*** Reached end of trace for Core: 0 Repeating trace: traces/spec2k17/srv_41.champsimtrace.xz
Heartbeat CPU 0 instructions: 40000001 cycles: 11456981 heartbeat IPC: 3.51062 cumulative IPC: 3.49132 (Simulation time: 0 hr 1 min 57 sec) 
Heartbeat CPU 0 instructions: 50000000 cycles: 14322409 heartbeat IPC: 3.48988 cumulative IPC: 3.49103 (Simulation time: 0 hr 2 min 32 sec) 

Warmup complete CPU 0 instructions: 50000004 cycles: 14322410 (Simulation time: 0 hr 2 min 32 sec) 

Heartbeat CPU 0 instructions: 60000002 cycles: 40157769 heartbeat IPC: 0.387066 cumulative IPC: 0.387066 (Simulation time: 0 hr 3 min 12 sec) 
*** Reached end of trace for Core: 0 Repeating trace: traces/spec2k17/srv_41.champsimtrace.xz
Heartbeat CPU 0 instructions: 70000002 cycles: 60522162 heartbeat IPC: 0.491053 cumulative IPC: 0.432903 (Simulation time: 0 hr 3 min 51 sec) 
Heartbeat CPU 0 instructions: 80000002 cycles: 83160261 heartbeat IPC: 0.441733 cumulative IPC: 0.435807 (Simulation time: 0 hr 4 min 30 sec) 
Heartbeat CPU 0 instructions: 90000000 cycles: 108466028 heartbeat IPC: 0.395167 cumulative IPC: 0.424883 (Simulation time: 0 hr 5 min 7 sec) 
*** Reached end of trace for Core: 0 Repeating trace: traces/spec2k17/srv_41.champsimtrace.xz
Heartbeat CPU 0 instructions: 100000001 cycles: 129164266 heartbeat IPC: 0.483133 cumulative IPC: 0.435381 (Simulation time: 0 hr 5 min 43 sec) 
Heartbeat CPU 0 instructions: 110000000 cycles: 152419438 heartbeat IPC: 0.430012 cumulative IPC: 0.434477 (Simulation time: 0 hr 6 min 19 sec) 
Heartbeat CPU 0 instructions: 120000001 cycles: 177377994 heartbeat IPC: 0.400664 cumulative IPC: 0.429301 (Simulation time: 0 hr 6 min 54 sec) 
*** Reached end of trace for Core: 0 Repeating trace: traces/spec2k17/srv_41.champsimtrace.xz
Heartbeat CPU 0 instructions: 130000003 cycles: 198526650 heartbeat IPC: 0.472843 cumulative IPC: 0.434301 (Simulation time: 0 hr 7 min 29 sec) 
Heartbeat CPU 0 instructions: 140000000 cycles: 221296705 heartbeat IPC: 0.439173 cumulative IPC: 0.434837 (Simulation time: 0 hr 8 min 3 sec) 
Heartbeat CPU 0 instructions: 150000003 cycles: 245669980 heartbeat IPC: 0.410286 cumulative IPC: 0.43225 (Simulation time: 0 hr 8 min 38 sec) 
*** Reached end of trace for Core: 0 Repeating trace: traces/spec2k17/srv_41.champsimtrace.xz
Heartbeat CPU 0 instructions: 160000000 cycles: 266970330 heartbeat IPC: 0.469476 cumulative IPC: 0.435388 (Simulation time: 0 hr 9 min 13 sec) 
Heartbeat CPU 0 instructions: 170000000 cycles: 291263477 heartbeat IPC: 0.411639 cumulative IPC: 0.433305 (Simulation time: 0 hr 9 min 48 sec) 
Heartbeat CPU 0 instructions: 180000001 cycles: 313947819 heartbeat IPC: 0.440833 cumulative IPC: 0.433875 (Simulation time: 0 hr 10 min 22 sec) 
*** Reached end of trace for Core: 0 Repeating trace: traces/spec2k17/srv_41.champsimtrace.xz
Heartbeat CPU 0 instructions: 190000000 cycles: 335387226 heartbeat IPC: 0.466431 cumulative IPC: 0.436049 (Simulation time: 0 hr 10 min 57 sec) 
Heartbeat CPU 0 instructions: 200000000 cycles: 359974932 heartbeat IPC: 0.406707 cumulative IPC: 0.433962 (Simulation time: 0 hr 11 min 31 sec) 
Heartbeat CPU 0 instructions: 210000003 cycles: 381499337 heartbeat IPC: 0.464589 cumulative IPC: 0.435757 (Simulation time: 0 hr 12 min 5 sec) 
*** Reached end of trace for Core: 0 Repeating trace: traces/spec2k17/srv_41.champsimtrace.xz
Heartbeat CPU 0 instructions: 220000000 cycles: 405064565 heartbeat IPC: 0.424354 cumulative IPC: 0.43507 (Simulation time: 0 hr 12 min 40 sec) 
Heartbeat CPU 0 instructions: 230000000 cycles: 427895208 heartbeat IPC: 0.438008 cumulative IPC: 0.435232 (Simulation time: 0 hr 13 min 14 sec) 
Heartbeat CPU 0 instructions: 240000000 cycles: 449664294 heartbeat IPC: 0.459367 cumulative IPC: 0.436439 (Simulation time: 0 hr 13 min 48 sec) 
*** Reached end of trace for Core: 0 Repeating trace: traces/spec2k17/srv_41.champsimtrace.xz
Heartbeat CPU 0 instructions: 250000002 cycles: 473602658 heartbeat IPC: 0.41774 cumulative IPC: 0.435464 (Simulation time: 0 hr 14 min 24 sec) 
Finished CPU 0 instructions: 200000002 cycles: 459280249 cumulative IPC: 0.435464 (Simulation time: 0 hr 14 min 24 sec) 

ChampSim completed all CPUs

Region of Interest Statistics

CPU 0 cumulative IPC: 0.435464 instructions: 200000002 cycles: 459280249
ITLB TOTAL     ACCESS:   34227243  HIT:   33341137  MISS:     886106  HIT %:    97.4111  MISS %:    2.58889   MPKI: 4.43053
ITLB LOAD TRANSLATION ACCESS:   34227243  HIT:   33341137  MISS:     886106  HIT %:    97.4111  MISS %:    2.58889   MPKI: 4.43053
ITLB PREFETCH  REQUESTED:          0  ISSUED:          0  USEFUL:          0  USELESS:          0
ITLB USEFUL LOAD PREFETCHES:          0 PREFETCH ISSUED TO LOWER LEVEL:          0  ACCURACY: -nan
ITLB TIMELY PREFETCHES:          0 LATE PREFETCHES: 0 DROPPED PREFETCHES: 0
ITLB PREFETCHES SAME FILL-ORIGIN LEVEL: 0 DIFFERENT FILL-ORIGIN LEVEL: 0
ITLB AVERAGE MISS LATENCY: 10.3989 cycles
ITLB RQ	ACCESS:   39106690	FORWARD:          0	MERGED:    4618669	TO_CACHE:   34488021

DTLB TOTAL     ACCESS:   38131540  HIT:   37147970  MISS:     983570  HIT %:    97.4206  MISS %:    2.57941   MPKI: 4.91785
DTLB LOAD TRANSLATION ACCESS:   38131540  HIT:   37147970  MISS:     983570  HIT %:    97.4206  MISS %:    2.57941   MPKI: 4.91785
DTLB PREFETCH  REQUESTED:          0  ISSUED:          0  USEFUL:          0  USELESS:          0
DTLB USEFUL LOAD PREFETCHES:          0 PREFETCH ISSUED TO LOWER LEVEL:          0  ACCURACY: -nan
DTLB TIMELY PREFETCHES:          0 LATE PREFETCHES: 0 DROPPED PREFETCHES: 0
DTLB PREFETCHES SAME FILL-ORIGIN LEVEL: 0 DIFFERENT FILL-ORIGIN LEVEL: 0
DTLB AVERAGE MISS LATENCY: 14.4705 cycles
DTLB RQ	ACCESS:   50528436	FORWARD:          0	MERGED:   12328652	TO_CACHE:   38199784

STLB TOTAL     ACCESS:    7621231  HIT:    7515127  MISS:     106104  HIT %:    98.6078  MISS %:    1.39222   MPKI: 0.53052
STLB LOAD TRANSLATION ACCESS:    1869676  HIT:    1767179  MISS:     102497  HIT %:    94.5179  MISS %:    5.48207   MPKI: 0.512485
STLB TRANSLATION FROM L1D PREFETCHER ACCESS:    5751555  HIT:    5747948  MISS:       3607  HIT %:    99.9373  MISS %:  0.0627135   MPKI: 0.018035
STLB PREFETCH  REQUESTED:          0  ISSUED:          0  USEFUL:       2782  USELESS:        822
STLB USEFUL LOAD PREFETCHES:       2782 PREFETCH ISSUED TO LOWER LEVEL:          0  ACCURACY: inf
STLB TIMELY PREFETCHES:       2782 LATE PREFETCHES: 344 DROPPED PREFETCHES: 126102
STLB PREFETCHES SAME FILL-ORIGIN LEVEL: 0 DIFFERENT FILL-ORIGIN LEVEL: 0
STLB AVERAGE MISS LATENCY: 66.5605 cycles
STLB RQ	ACCESS:    8812282	FORWARD:          0	MERGED:    1064307	TO_CACHE:    7747975

STLB Hit, L1D data hit: 0
STLB Hit, L2C data hit: 0
STLB Hit, LLC data hit: 0
STLB Hit, LLC data miss: 0
STLB STLB hints to L2: 0
L1D TOTAL     ACCESS:   56203505  HIT:   53726683  MISS:    2476822  HIT %:    95.5931  MISS %:    4.40688   MPKI: 12.3841
L1D LOAD      ACCESS:   30390371  HIT:   28776795  MISS:    1613576  HIT %:    94.6905  MISS %:     5.3095   MPKI: 8.06788
L1D RFO       ACCESS:   19129695  HIT:   18457426  MISS:     672269  HIT %:    96.4857  MISS %:    3.51427   MPKI: 3.36134
L1D PREFETCH  ACCESS:    6683439  HIT:    6492462  MISS:     190977  HIT %:    97.1425  MISS %:    2.85747   MPKI: 0.954885
AGUS PREFETCH L1 MISS: 0
L1D PREFETCH  REQUESTED:   15359876  ISSUED:   15358391  USEFUL:      99119  USELESS:      91831
L1D USEFUL LOAD PREFETCHES:      99119 PREFETCH ISSUED TO LOWER LEVEL:     231599  ACCURACY: 42.7977
L1D TIMELY PREFETCHES:      99119 LATE PREFETCHES: 40254 DROPPED PREFETCHES: 133213
L1D PREFETCHES SAME FILL-ORIGIN LEVEL: 231599 DIFFERENT FILL-ORIGIN LEVEL: 0
L1D AVERAGE MISS LATENCY: 5.12481e+06 cycles
L1D RQ	ACCESS:   41939836	FORWARD:          0	MERGED:   11160510	TO_CACHE:   30512495
L1D WQ	ACCESS:   20245042	FORWARD:     277792	MERGED:     229101	TO_CACHE:   20015941
L1D PQ	ACCESS:    8415785	FORWARD:          0	MERGED:    1462218	TO_CACHE:    6942606

L1D UNIQUE REGIONS ACCESSED: 0
L1D REGIONS CONFLICTS: 0
L1D Cross Page Prefetch Requests: 5498371
L1D Same Page Prefetch Requests: 3932704
L1D ROI Sum of L1D PQ occupancy: 102431413
L1D PREFETCHES PUSHED FROM L2C: 0
L1I TOTAL     ACCESS:   38313751  HIT:   33574787  MISS:    4738964  HIT %:    87.6312  MISS %:    12.3688   MPKI: 23.6948
L1I LOAD      ACCESS:   38313751  HIT:   33574787  MISS:    4738964  HIT %:    87.6312  MISS %:    12.3688   MPKI: 23.6948
L1I PREFETCH  REQUESTED:          0  ISSUED:          0  USEFUL:          0  USELESS:          0
L1I USEFUL LOAD PREFETCHES:          0 PREFETCH ISSUED TO LOWER LEVEL:          0  ACCURACY: -nan
L1I TIMELY PREFETCHES:          0 LATE PREFETCHES: 0 DROPPED PREFETCHES: 0
L1I PREFETCHES SAME FILL-ORIGIN LEVEL: 0 DIFFERENT FILL-ORIGIN LEVEL: 0
L1I AVERAGE MISS LATENCY: 22.5026 cycles
L1I RQ	ACCESS:   60538247	FORWARD:          0	MERGED:   21431557	TO_CACHE:   39106690

BTB TOTAL     ACCESS:   31960684  HIT:   26197910  MISS:    5762774  HIT %:    81.9692  MISS %:    18.0308   MPKI: 28.8139
BTB BRANCH_DIRECT_JUMP	ACCESS:    3125250  HIT:    2730574  MISS:     394676
BTB BRANCH_INDIRECT	ACCESS:   11716382  HIT:    9367715  MISS:    2348667
BTB BRANCH_CONDITIONAL	ACCESS:   10786856  HIT:   10320288  MISS:     466568
BTB BRANCH_DIRECT_CALL	ACCESS:    2710252  HIT:    1976262  MISS:     733990
BTB BRANCH_INDIRECT_CALL	ACCESS:     455858  HIT:     278081  MISS:     177777
BTB BRANCH_RETURN	ACCESS:    3166086  HIT:    1524990  MISS:    1641096
BTB BRANCH_OTHER ACCESS:          0  HIT:          0  MISS:          0

L2C TOTAL     ACCESS:    8825096  HIT:    6158787  MISS:    2666309  HIT %:    69.7872  MISS %:    30.2128   MPKI: 13.3315
L2C LOAD      ACCESS:    6312244  HIT:    4320030  MISS:    1992214  HIT %:    68.4389  MISS %:    31.5611   MPKI: 9.96107
L2C DATA LOAD MPKI: 3.57275
L2C INSTRUCTION LOAD MPKI: 6.38831
L2C RFO       ACCESS:     671883  HIT:     283907  MISS:     387976  HIT %:    42.2554  MISS %:    57.7446   MPKI: 1.93988
L2C PREFETCH  ACCESS:     231594  HIT:     138075  MISS:      93519  HIT %:    59.6194  MISS %:    40.3806   MPKI: 0.467595
AGUS PREFETCH L1 MISS: 0
L2C DATA PREFETCH MPKI: 0.467595
L2C INSTRUCTION PREFETCH MPKI: 0
L2C WRITEBACK ACCESS:    1233649  HIT:    1148018  MISS:      85631  HIT %:    93.0587  MISS %:    6.94128   MPKI: 0.428155
L2C LOAD TRANSLATION ACCESS:     160290  HIT:      79455  MISS:      80835  HIT %:    49.5695  MISS %:    50.4305   MPKI: 0.404175
L2C TRANSLATION FROM L1D PREFETCHER ACCESS:     215436  HIT:     189302  MISS:      26134  HIT %:    87.8693  MISS %:    12.1307   MPKI: 0.13067
L2C PREFETCH  REQUESTED:          0  ISSUED:          0  USEFUL:      24150  USELESS:      95313
L2C USEFUL LOAD PREFETCHES:      24150 PREFETCH ISSUED TO LOWER LEVEL:      93519  ACCURACY: 25.8236
L2C TIMELY PREFETCHES:      24150 LATE PREFETCHES: 0 DROPPED PREFETCHES: 0
L2C PREFETCHES SAME FILL-ORIGIN LEVEL: 0 DIFFERENT FILL-ORIGIN LEVEL: 0
L2C AVERAGE MISS LATENCY: 54.0823 cycles
L2C RQ	ACCESS:    7359913	FORWARD:          0	MERGED:          0	TO_CACHE:    7359853
L2C WQ	ACCESS:    1233649	FORWARD:         65	MERGED:          0	TO_CACHE:    1233649
L2C PQ	ACCESS:     231599	FORWARD:          0	MERGED:          0	TO_CACHE:     231594

L2C Instructions Evicting Data 578378
L2C Translations Evicting Data 56283
L2C Data Evicting Data 604749
L2C Instructions Evicting Instructions 653331
L2C Translations Evicting Instructions 45816
L2C Data Evicting Instructions 538150
L2C Instructions Evicting Translations 45954
L2C Translations Evicting Translations 4870
L2C Data Evicting Translations 53147
L2C Dense regions hint from L2: 0
PSCL5 TOTAL     ACCESS:     231730  HIT:     231730  MISS:          0  HIT %:        100  MISS %:          0   MPKI: 0
PSCL5 LOAD TRANSLATION ACCESS:     102153  HIT:     102153  MISS:          0  HIT %:        100  MISS %:          0   MPKI: 0
PSCL5 TRANSLATION FROM L1D PREFETCHER ACCESS:     129577  HIT:     129577  MISS:          0  HIT %:        100  MISS %:          0   MPKI: 0
PSCL5 PREFETCH  REQUESTED:          0  ISSUED:          0  USEFUL:          0  USELESS:          0
PSCL5 USEFUL LOAD PREFETCHES:          0 PREFETCH ISSUED TO LOWER LEVEL:          0  ACCURACY: -nan
PSCL5 TIMELY PREFETCHES:          0 LATE PREFETCHES: 0 DROPPED PREFETCHES: 0
PSCL5 PREFETCHES SAME FILL-ORIGIN LEVEL: 0 DIFFERENT FILL-ORIGIN LEVEL: 0

PSCL4 TOTAL     ACCESS:     221560  HIT:     221245  MISS:        315  HIT %:    99.8578  MISS %:   0.142174   MPKI: 0.001575
PSCL4 LOAD TRANSLATION ACCESS:     101631  HIT:     101316  MISS:        315  HIT %:    99.6901  MISS %:   0.309945   MPKI: 0.001575
PSCL4 TRANSLATION FROM L1D PREFETCHER ACCESS:     119929  HIT:     119929  MISS:          0  HIT %:        100  MISS %:          0   MPKI: 0
PSCL4 PREFETCH  REQUESTED:          0  ISSUED:          0  USEFUL:          0  USELESS:          0
PSCL4 USEFUL LOAD PREFETCHES:          0 PREFETCH ISSUED TO LOWER LEVEL:          0  ACCURACY: -nan
PSCL4 TIMELY PREFETCHES:          0 LATE PREFETCHES: 0 DROPPED PREFETCHES: 0
PSCL4 PREFETCHES SAME FILL-ORIGIN LEVEL: 0 DIFFERENT FILL-ORIGIN LEVEL: 0

PSCL3 TOTAL     ACCESS:     164390  HIT:     146642  MISS:      17748  HIT %:    89.2037  MISS %:    10.7963   MPKI: 0.08874
PSCL3 LOAD TRANSLATION ACCESS:      96156  HIT:      78408  MISS:      17748  HIT %:    81.5425  MISS %:    18.4575   MPKI: 0.08874
PSCL3 TRANSLATION FROM L1D PREFETCHER ACCESS:      68234  HIT:      68234  MISS:          0  HIT %:        100  MISS %:          0   MPKI: 0
PSCL3 PREFETCH  REQUESTED:          0  ISSUED:          0  USEFUL:          0  USELESS:          0
PSCL3 USEFUL LOAD PREFETCHES:          0 PREFETCH ISSUED TO LOWER LEVEL:          0  ACCURACY: -nan
PSCL3 TIMELY PREFETCHES:          0 LATE PREFETCHES: 0 DROPPED PREFETCHES: 0
PSCL3 PREFETCHES SAME FILL-ORIGIN LEVEL: 0 DIFFERENT FILL-ORIGIN LEVEL: 0

PSCL2 TOTAL     ACCESS:     126599  HIT:      82443  MISS:      44156  HIT %:    65.1214  MISS %:    34.8786   MPKI: 0.22078
PSCL2 LOAD TRANSLATION ACCESS:     104803  HIT:      60647  MISS:      44156  HIT %:    57.8676  MISS %:    42.1324   MPKI: 0.22078
PSCL2 TRANSLATION FROM L1D PREFETCHER ACCESS:      21796  HIT:      21796  MISS:          0  HIT %:        100  MISS %:          0   MPKI: 0
PSCL2 PREFETCH  REQUESTED:          0  ISSUED:          0  USEFUL:          0  USELESS:          0
PSCL2 USEFUL LOAD PREFETCHES:          0 PREFETCH ISSUED TO LOWER LEVEL:          0  ACCURACY: -nan
PSCL2 TIMELY PREFETCHES:          0 LATE PREFETCHES: 0 DROPPED PREFETCHES: 0
PSCL2 PREFETCHES SAME FILL-ORIGIN LEVEL: 0 DIFFERENT FILL-ORIGIN LEVEL: 0

LLC TOTAL     ACCESS:    3223497  HIT:    2880029  MISS:     343468  HIT %:    89.3449  MISS %:    10.6551   MPKI: 1.71734
LLC LOAD      ACCESS:    1992212  HIT:    1811710  MISS:     180502  HIT %:    90.9396  MISS %:    9.06038   MPKI: 0.90251
LLC RFO       ACCESS:     387975  HIT:     254287  MISS:     133688  HIT %:    65.5421  MISS %:    34.4579   MPKI: 0.66844
LLC PREFETCH  ACCESS:      93518  HIT:      78158  MISS:      15360  HIT %:    83.5754  MISS %:    16.4246   MPKI: 0.0768
AGUS PREFETCH L1 MISS: 0
LLC WRITEBACK ACCESS:     642823  HIT:     640754  MISS:       2069  HIT %:    99.6781  MISS %:   0.321862   MPKI: 0.010345
LLC LOAD TRANSLATION ACCESS:      80835  HIT:      71585  MISS:       9250  HIT %:    88.5569  MISS %:    11.4431   MPKI: 0.04625
LLC TRANSLATION FROM L1D PREFETCHER ACCESS:      26134  HIT:      23535  MISS:       2599  HIT %:    90.0551  MISS %:     9.9449   MPKI: 0.012995
LLC PREFETCH  REQUESTED:          0  ISSUED:          0  USEFUL:       2175  USELESS:      15336
LLC USEFUL LOAD PREFETCHES:       2175 PREFETCH ISSUED TO LOWER LEVEL:      15360  ACCURACY: 14.1602
LLC TIMELY PREFETCHES:       2175 LATE PREFETCHES: 0 DROPPED PREFETCHES: 0
LLC PREFETCHES SAME FILL-ORIGIN LEVEL: 0 DIFFERENT FILL-ORIGIN LEVEL: 0
LLC AVERAGE MISS LATENCY: 194.425 cycles
LLC RQ	ACCESS:    2487159	FORWARD:          0	MERGED:          0	TO_CACHE:    2487156
LLC WQ	ACCESS:     642823	FORWARD:          4	MERGED:          0	TO_CACHE:     642823
LLC PQ	ACCESS:      93519	FORWARD:          0	MERGED:          0	TO_CACHE:      93518

LLC Dense regions hint to LLC: 0

RAW hits: 2083889
Loads Generated: 44023727
Loads sent to L1D: 41939836
Stores Generated: 20245026
Stores sent to L1D: 20245042
Major fault: 0 Minor fault: 5392
Allocated PAGES: 5392
Completed 

DRAM Statistics
 CHANNEL 0
 RQ ROW_BUFFER_HIT:      73760  ROW_BUFFER_MISS:     267635
 DBUS_CONGESTED:        158
 WQ ROW_BUFFER_HIT:      31728  ROW_BUFFER_MISS:     194435  FULL:          0

 AVG_CONGESTED_CYCLE: 4
 All warmup complete: 2
Channel 0 Bank busy for read cycles: 0
Channel 0 Bank busy for write cycles: 0
Channel 0
Rank 0
0banks busy for read cycles: 406804532
0banks busy for write cycles: 101476
1banks busy for read cycles: 24226067
1banks busy for write cycles: 14507373
2banks busy for read cycles: 3983719
2banks busy for write cycles: 3675572
3banks busy for read cycles: 960349
3banks busy for write cycles: 1414300
4banks busy for read cycles: 245203
4banks busy for write cycles: 573331
5banks busy for read cycles: 119669
5banks busy for write cycles: 263759
6banks busy for read cycles: 120393
6banks busy for write cycles: 146476
7banks busy for read cycles: 179411
7banks busy for write cycles: 170999
8banks busy for read cycles: 669449
8banks busy for write cycles: 1118172

CPU 0 Branch Prediction Accuracy: 99.5917% MPKI: 0.749205 Average ROB Occupancy at Mispredict: 29.9715
Branch types
NOT_BRANCH: 163297289 81.6486%
BRANCH_DIRECT_JUMP: 3125250 1.56262%
BRANCH_INDIRECT: 11716382 5.85819%
BRANCH_CONDITIONAL: 15528542 7.76427%
BRANCH_DIRECT_CALL: 2710252 1.35513%
BRANCH_INDIRECT_CALL: 455858 0.227929%
BRANCH_RETURN: 3166086 1.58304%
BRANCH_OTHER: 0 0%

DRAM PAGES: 1048576
Allocated PAGES: 5392
