
*** ChampSim Multicore Out-of-Order Simulator ***

Warmup Instructions: 50000000
Simulation Instructions: 200000000
Number of CPUs: 1
LLC sets: 2048
LLC ways: 16
Off-chip DRAM Size: 4096 MB Channels: 1 Width: 64-bit Data Rate: 6400 MT/s
CPU 0 runs traces/spec2k17/srv_35.champsimtrace.xz
.xz
BTB has LRU replacement policy
ITLB has LRU replacement policy
DTLB has LRU replacement policy
STLB has LRU replacement policy
L1I has LRU replacement policy
L1D has LRU replacement policy
Initialize SRRIP state for L2C
Initialize DRRIP state for LLC
Heartbeat CPU 0 instructions: 10000002 cycles: 2939486 heartbeat IPC: 3.40196 cumulative IPC: 3.40196 (Simulation time: 0 hr 0 min 33 sec) 
Heartbeat CPU 0 instructions: 20000000 cycles: 5884123 heartbeat IPC: 3.396 cumulative IPC: 3.39898 (Simulation time: 0 hr 1 min 0 sec) 
Heartbeat CPU 0 instructions: 30000001 cycles: 8831171 heartbeat IPC: 3.39323 cumulative IPC: 3.39706 (Simulation time: 0 hr 1 min 36 sec) 
*** Reached end of trace for Core: 0 Repeating trace: traces/spec2k17/srv_35.champsimtrace.xz
Heartbeat CPU 0 instructions: 40000002 cycles: 11769725 heartbeat IPC: 3.40303 cumulative IPC: 3.39855 (Simulation time: 0 hr 2 min 11 sec) 
Heartbeat CPU 0 instructions: 50000002 cycles: 14714780 heartbeat IPC: 3.39552 cumulative IPC: 3.39794 (Simulation time: 0 hr 2 min 43 sec) 

Warmup complete CPU 0 instructions: 50000002 cycles: 14714780 (Simulation time: 0 hr 2 min 43 sec) 

Heartbeat CPU 0 instructions: 60000002 cycles: 34940597 heartbeat IPC: 0.494418 cumulative IPC: 0.494418 (Simulation time: 0 hr 3 min 41 sec) 
*** Reached end of trace for Core: 0 Repeating trace: traces/spec2k17/srv_35.champsimtrace.xz
Heartbeat CPU 0 instructions: 70000001 cycles: 54697948 heartbeat IPC: 0.506141 cumulative IPC: 0.50021 (Simulation time: 0 hr 4 min 37 sec) 
Heartbeat CPU 0 instructions: 80000002 cycles: 74689320 heartbeat IPC: 0.500216 cumulative IPC: 0.500212 (Simulation time: 0 hr 5 min 27 sec) 
Heartbeat CPU 0 instructions: 90000003 cycles: 94728219 heartbeat IPC: 0.499029 cumulative IPC: 0.499916 (Simulation time: 0 hr 6 min 21 sec) 
*** Reached end of trace for Core: 0 Repeating trace: traces/spec2k17/srv_35.champsimtrace.xz
Heartbeat CPU 0 instructions: 100000001 cycles: 114479112 heartbeat IPC: 0.506306 cumulative IPC: 0.501181 (Simulation time: 0 hr 7 min 8 sec) 
Heartbeat CPU 0 instructions: 110000000 cycles: 134471751 heartbeat IPC: 0.500184 cumulative IPC: 0.501015 (Simulation time: 0 hr 8 min 11 sec) 
Heartbeat CPU 0 instructions: 120000000 cycles: 154480755 heartbeat IPC: 0.499775 cumulative IPC: 0.500837 (Simulation time: 0 hr 9 min 23 sec) 
*** Reached end of trace for Core: 0 Repeating trace: traces/spec2k17/srv_35.champsimtrace.xz
Heartbeat CPU 0 instructions: 130000001 cycles: 174196114 heartbeat IPC: 0.507219 cumulative IPC: 0.501626 (Simulation time: 0 hr 10 min 9 sec) 
Heartbeat CPU 0 instructions: 140000000 cycles: 194171706 heartbeat IPC: 0.500611 cumulative IPC: 0.501513 (Simulation time: 0 hr 10 min 54 sec) 
Heartbeat CPU 0 instructions: 150000002 cycles: 214103992 heartbeat IPC: 0.501699 cumulative IPC: 0.501532 (Simulation time: 0 hr 11 min 39 sec) 
Heartbeat CPU 0 instructions: 160000001 cycles: 233905790 heartbeat IPC: 0.505005 cumulative IPC: 0.501845 (Simulation time: 0 hr 12 min 24 sec) 
*** Reached end of trace for Core: 0 Repeating trace: traces/spec2k17/srv_35.champsimtrace.xz
Heartbeat CPU 0 instructions: 170000000 cycles: 253607315 heartbeat IPC: 0.507575 cumulative IPC: 0.502318 (Simulation time: 0 hr 13 min 9 sec) 
Heartbeat CPU 0 instructions: 180000000 cycles: 273784226 heartbeat IPC: 0.495616 cumulative IPC: 0.501796 (Simulation time: 0 hr 13 min 53 sec) 
Heartbeat CPU 0 instructions: 190000003 cycles: 293608352 heartbeat IPC: 0.504436 cumulative IPC: 0.501984 (Simulation time: 0 hr 14 min 37 sec) 
*** Reached end of trace for Core: 0 Repeating trace: traces/spec2k17/srv_35.champsimtrace.xz
Heartbeat CPU 0 instructions: 200000003 cycles: 313307591 heartbeat IPC: 0.507634 cumulative IPC: 0.502356 (Simulation time: 0 hr 15 min 22 sec) 
Heartbeat CPU 0 instructions: 210000003 cycles: 333252700 heartbeat IPC: 0.501376 cumulative IPC: 0.502295 (Simulation time: 0 hr 16 min 6 sec) 
Heartbeat CPU 0 instructions: 220000000 cycles: 353187493 heartbeat IPC: 0.501635 cumulative IPC: 0.502256 (Simulation time: 0 hr 16 min 50 sec) 
*** Reached end of trace for Core: 0 Repeating trace: traces/spec2k17/srv_35.champsimtrace.xz
Heartbeat CPU 0 instructions: 230000000 cycles: 372924789 heartbeat IPC: 0.506655 cumulative IPC: 0.502499 (Simulation time: 0 hr 17 min 34 sec) 
Heartbeat CPU 0 instructions: 240000001 cycles: 392905767 heartbeat IPC: 0.500476 cumulative IPC: 0.502392 (Simulation time: 0 hr 18 min 18 sec) 
Heartbeat CPU 0 instructions: 250000001 cycles: 412883064 heartbeat IPC: 0.500568 cumulative IPC: 0.5023 (Simulation time: 0 hr 19 min 3 sec) 
Finished CPU 0 instructions: 200000003 cycles: 398168285 cumulative IPC: 0.5023 (Simulation time: 0 hr 19 min 3 sec) 

ChampSim completed all CPUs

Region of Interest Statistics

CPU 0 cumulative IPC: 0.5023 instructions: 200000003 cycles: 398168285
ITLB TOTAL     ACCESS:   33788954  HIT:   32250640  MISS:    1538314  HIT %:    95.4473  MISS %:    4.55271   MPKI: 7.69157
ITLB LOAD TRANSLATION ACCESS:   33788954  HIT:   32250640  MISS:    1538314  HIT %:    95.4473  MISS %:    4.55271   MPKI: 7.69157
ITLB PREFETCH  REQUESTED:          0  ISSUED:          0  USEFUL:          0  USELESS:          0
ITLB USEFUL LOAD PREFETCHES:          0 PREFETCH ISSUED TO LOWER LEVEL:          0  ACCURACY: -nan
ITLB TIMELY PREFETCHES:          0 LATE PREFETCHES: 0 DROPPED PREFETCHES: 0
ITLB PREFETCHES SAME FILL-ORIGIN LEVEL: 0 DIFFERENT FILL-ORIGIN LEVEL: 0
ITLB AVERAGE MISS LATENCY: 9.24461 cycles
ITLB RQ	ACCESS:   40663271	FORWARD:          0	MERGED:    6379682	TO_CACHE:   34283589

DTLB TOTAL     ACCESS:   39973329  HIT:   38442389  MISS:    1530940  HIT %:    96.1701  MISS %:     3.8299   MPKI: 7.6547
DTLB LOAD TRANSLATION ACCESS:   39973329  HIT:   38442389  MISS:    1530940  HIT %:    96.1701  MISS %:     3.8299   MPKI: 7.6547
DTLB PREFETCH  REQUESTED:          0  ISSUED:          0  USEFUL:          0  USELESS:          0
DTLB USEFUL LOAD PREFETCHES:          0 PREFETCH ISSUED TO LOWER LEVEL:          0  ACCURACY: -nan
DTLB TIMELY PREFETCHES:          0 LATE PREFETCHES: 0 DROPPED PREFETCHES: 0
DTLB PREFETCHES SAME FILL-ORIGIN LEVEL: 0 DIFFERENT FILL-ORIGIN LEVEL: 0
DTLB AVERAGE MISS LATENCY: 14.5805 cycles
DTLB RQ	ACCESS:   61049655	FORWARD:          0	MERGED:   20687341	TO_CACHE:   40362314

STLB TOTAL     ACCESS:    9494135  HIT:    9415383  MISS:      78752  HIT %:    99.1705  MISS %:   0.829481   MPKI: 0.39376
STLB LOAD TRANSLATION ACCESS:    3069254  HIT:    2991898  MISS:      77356  HIT %:    97.4796  MISS %:    2.52035   MPKI: 0.38678
STLB TRANSLATION FROM L1D PREFETCHER ACCESS:    6424881  HIT:    6423485  MISS:       1396  HIT %:    99.9783  MISS %:   0.021728   MPKI: 0.00698
STLB PREFETCH  REQUESTED:          0  ISSUED:          0  USEFUL:       1210  USELESS:        186
STLB USEFUL LOAD PREFETCHES:       1210 PREFETCH ISSUED TO LOWER LEVEL:          0  ACCURACY: inf
STLB TIMELY PREFETCHES:       1210 LATE PREFETCHES: 242 DROPPED PREFETCHES: 23794
STLB PREFETCHES SAME FILL-ORIGIN LEVEL: 0 DIFFERENT FILL-ORIGIN LEVEL: 0
STLB AVERAGE MISS LATENCY: 120.956 cycles
STLB RQ	ACCESS:   10596619	FORWARD:          0	MERGED:    1078008	TO_CACHE:    9518611

STLB Hit, L1D data hit: 0
STLB Hit, L2C data hit: 0
STLB Hit, LLC data hit: 0
STLB Hit, LLC data miss: 0
STLB STLB hints to L2: 0
L1D TOTAL     ACCESS:   55786915  HIT:   48874354  MISS:    6912561  HIT %:     87.609  MISS %:     12.391   MPKI: 34.5628
L1D LOAD      ACCESS:   26686646  HIT:   23712902  MISS:    2973744  HIT %:    88.8568  MISS %:    11.1432   MPKI: 14.8687
L1D RFO       ACCESS:   22519105  HIT:   18842444  MISS:    3676661  HIT %:    83.6731  MISS %:    16.3269   MPKI: 18.3833
L1D PREFETCH  ACCESS:    6581164  HIT:    6319008  MISS:     262156  HIT %:    96.0166  MISS %:    3.98343   MPKI: 1.31078
AGUS PREFETCH L1 MISS: 0
L1D PREFETCH  REQUESTED:   18676333  ISSUED:   18675458  USEFUL:     129693  USELESS:     132443
L1D USEFUL LOAD PREFETCHES:     129693 PREFETCH ISSUED TO LOWER LEVEL:     431380  ACCURACY: 30.0647
L1D TIMELY PREFETCHES:     129693 LATE PREFETCHES: 169035 DROPPED PREFETCHES: 24244
L1D PREFETCHES SAME FILL-ORIGIN LEVEL: 431380 DIFFERENT FILL-ORIGIN LEVEL: 0
L1D AVERAGE MISS LATENCY: 5.4599e+06 cycles
L1D RQ	ACCESS:   45231912	FORWARD:          0	MERGED:   17836134	TO_CACHE:   27114709
L1D WQ	ACCESS:   34133602	FORWARD:     311099	MERGED:     198656	TO_CACHE:   33934946
L1D PQ	ACCESS:   11148093	FORWARD:          0	MERGED:    3590698	TO_CACHE:    7527365

L1D UNIQUE REGIONS ACCESSED: 0
L1D REGIONS CONFLICTS: 0
L1D Cross Page Prefetch Requests: 4413965
L1D Same Page Prefetch Requests: 8475886
L1D ROI Sum of L1D PQ occupancy: 107650405
L1D PREFETCHES PUSHED FROM L2C: 0
L1I TOTAL     ACCESS:   38006847  HIT:   28901380  MISS:    9105467  HIT %:    76.0426  MISS %:    23.9574   MPKI: 45.5273
L1I LOAD      ACCESS:   38006847  HIT:   28901380  MISS:    9105467  HIT %:    76.0426  MISS %:    23.9574   MPKI: 45.5273
L1I PREFETCH  REQUESTED:          0  ISSUED:          0  USEFUL:          0  USELESS:          0
L1I USEFUL LOAD PREFETCHES:          0 PREFETCH ISSUED TO LOWER LEVEL:          0  ACCURACY: -nan
L1I TIMELY PREFETCHES:          0 LATE PREFETCHES: 0 DROPPED PREFETCHES: 0
L1I PREFETCHES SAME FILL-ORIGIN LEVEL: 0 DIFFERENT FILL-ORIGIN LEVEL: 0
L1I AVERAGE MISS LATENCY: 16.866 cycles
L1I RQ	ACCESS:   59013198	FORWARD:          0	MERGED:   18349927	TO_CACHE:   40663271

BTB TOTAL     ACCESS:   25730492  HIT:   24146056  MISS:    1584436  HIT %:    93.8422  MISS %:    6.15781   MPKI: 7.92218
BTB BRANCH_DIRECT_JUMP	ACCESS:    1658706  HIT:    1646127  MISS:      12579
BTB BRANCH_INDIRECT	ACCESS:    9991436  HIT:    9459142  MISS:     532294
BTB BRANCH_CONDITIONAL	ACCESS:    7236367  HIT:    7219065  MISS:      17302
BTB BRANCH_DIRECT_CALL	ACCESS:    2824055  HIT:    2784656  MISS:      39399
BTB BRANCH_INDIRECT_CALL	ACCESS:     597965  HIT:     486107  MISS:     111858
BTB BRANCH_RETURN	ACCESS:    3421963  HIT:    2550959  MISS:     871004
BTB BRANCH_OTHER ACCESS:          0  HIT:          0  MISS:          0

L2C TOTAL     ACCESS:   20491768  HIT:   13820671  MISS:    6671097  HIT %:     67.445  MISS %:     32.555   MPKI: 33.3555
L2C LOAD      ACCESS:   11910124  HIT:    9244083  MISS:    2666041  HIT %:    77.6153  MISS %:    22.3847   MPKI: 13.3302
L2C DATA LOAD MPKI: 10.4591
L2C INSTRUCTION LOAD MPKI: 2.87109
L2C RFO       ACCESS:    3676469  HIT:     168709  MISS:    3507760  HIT %:    4.58889  MISS %:    95.4111   MPKI: 17.5388
L2C PREFETCH  ACCESS:     431354  HIT:     133303  MISS:     298051  HIT %:    30.9034  MISS %:    69.0966   MPKI: 1.49025
AGUS PREFETCH L1 MISS: 0
L2C DATA PREFETCH MPKI: 1.49025
L2C INSTRUCTION PREFETCH MPKI: 0
L2C WRITEBACK ACCESS:    4336868  HIT:    4193127  MISS:     143741  HIT %:    96.6856  MISS %:     3.3144   MPKI: 0.718705
L2C LOAD TRANSLATION ACCESS:      89814  HIT:      46692  MISS:      43122  HIT %:    51.9874  MISS %:    48.0126   MPKI: 0.21561
L2C TRANSLATION FROM L1D PREFETCHER ACCESS:      47139  HIT:      34757  MISS:      12382  HIT %:     73.733  MISS %:     26.267   MPKI: 0.06191
L2C PREFETCH  REQUESTED:          0  ISSUED:          0  USEFUL:      19539  USELESS:     290952
L2C USEFUL LOAD PREFETCHES:      19539 PREFETCH ISSUED TO LOWER LEVEL:     298051  ACCURACY: 6.55559
L2C TIMELY PREFETCHES:      19539 LATE PREFETCHES: 0 DROPPED PREFETCHES: 0
L2C PREFETCHES SAME FILL-ORIGIN LEVEL: 0 DIFFERENT FILL-ORIGIN LEVEL: 0
L2C AVERAGE MISS LATENCY: 156.335 cycles
L2C RQ	ACCESS:   15723601	FORWARD:          0	MERGED:          0	TO_CACHE:   15723546
L2C WQ	ACCESS:    4336869	FORWARD:         81	MERGED:          0	TO_CACHE:    4336869
L2C PQ	ACCESS:     431380	FORWARD:          0	MERGED:          0	TO_CACHE:     431354

L2C Instructions Evicting Data 522170
L2C Translations Evicting Data 50805
L2C Data Evicting Data 5338956
L2C Instructions Evicting Instructions 47523
L2C Translations Evicting Instructions 4303
L2C Data Evicting Instructions 509095
L2C Instructions Evicting Translations 4526
L2C Translations Evicting Translations 396
L2C Data Evicting Translations 49582
L2C Dense regions hint from L2: 0
PSCL5 TOTAL     ACCESS:     102293  HIT:     102293  MISS:          0  HIT %:        100  MISS %:          0   MPKI: 0
PSCL5 LOAD TRANSLATION ACCESS:      77114  HIT:      77114  MISS:          0  HIT %:        100  MISS %:          0   MPKI: 0
PSCL5 TRANSLATION FROM L1D PREFETCHER ACCESS:      25179  HIT:      25179  MISS:          0  HIT %:        100  MISS %:          0   MPKI: 0
PSCL5 PREFETCH  REQUESTED:          0  ISSUED:          0  USEFUL:          0  USELESS:          0
PSCL5 USEFUL LOAD PREFETCHES:          0 PREFETCH ISSUED TO LOWER LEVEL:          0  ACCURACY: -nan
PSCL5 TIMELY PREFETCHES:          0 LATE PREFETCHES: 0 DROPPED PREFETCHES: 0
PSCL5 PREFETCHES SAME FILL-ORIGIN LEVEL: 0 DIFFERENT FILL-ORIGIN LEVEL: 0

PSCL4 TOTAL     ACCESS:      96801  HIT:      96612  MISS:        189  HIT %:    99.8048  MISS %:   0.195246   MPKI: 0.000945
PSCL4 LOAD TRANSLATION ACCESS:      75190  HIT:      75001  MISS:        189  HIT %:    99.7486  MISS %:   0.251363   MPKI: 0.000945
PSCL4 TRANSLATION FROM L1D PREFETCHER ACCESS:      21611  HIT:      21611  MISS:          0  HIT %:        100  MISS %:          0   MPKI: 0
PSCL4 PREFETCH  REQUESTED:          0  ISSUED:          0  USEFUL:          0  USELESS:          0
PSCL4 USEFUL LOAD PREFETCHES:          0 PREFETCH ISSUED TO LOWER LEVEL:          0  ACCURACY: -nan
PSCL4 TIMELY PREFETCHES:          0 LATE PREFETCHES: 0 DROPPED PREFETCHES: 0
PSCL4 PREFETCHES SAME FILL-ORIGIN LEVEL: 0 DIFFERENT FILL-ORIGIN LEVEL: 0

PSCL3 TOTAL     ACCESS:      89084  HIT:      87831  MISS:       1253  HIT %:    98.5935  MISS %:    1.40654   MPKI: 0.006265
PSCL3 LOAD TRANSLATION ACCESS:      69760  HIT:      68507  MISS:       1253  HIT %:    98.2038  MISS %:    1.79616   MPKI: 0.006265
PSCL3 TRANSLATION FROM L1D PREFETCHER ACCESS:      19324  HIT:      19324  MISS:          0  HIT %:        100  MISS %:          0   MPKI: 0
PSCL3 PREFETCH  REQUESTED:          0  ISSUED:          0  USEFUL:          0  USELESS:          0
PSCL3 USEFUL LOAD PREFETCHES:          0 PREFETCH ISSUED TO LOWER LEVEL:          0  ACCURACY: -nan
PSCL3 TIMELY PREFETCHES:          0 LATE PREFETCHES: 0 DROPPED PREFETCHES: 0
PSCL3 PREFETCHES SAME FILL-ORIGIN LEVEL: 0 DIFFERENT FILL-ORIGIN LEVEL: 0

PSCL2 TOTAL     ACCESS:      86180  HIT:      74587  MISS:      11593  HIT %:    86.5479  MISS %:    13.4521   MPKI: 0.057965
PSCL2 LOAD TRANSLATION ACCESS:      77420  HIT:      65827  MISS:      11593  HIT %:    85.0258  MISS %:    14.9742   MPKI: 0.057965
PSCL2 TRANSLATION FROM L1D PREFETCHER ACCESS:       8760  HIT:       8760  MISS:          0  HIT %:        100  MISS %:          0   MPKI: 0
PSCL2 PREFETCH  REQUESTED:          0  ISSUED:          0  USEFUL:          0  USELESS:          0
PSCL2 USEFUL LOAD PREFETCHES:          0 PREFETCH ISSUED TO LOWER LEVEL:          0  ACCURACY: -nan
PSCL2 TIMELY PREFETCHES:          0 LATE PREFETCHES: 0 DROPPED PREFETCHES: 0
PSCL2 PREFETCHES SAME FILL-ORIGIN LEVEL: 0 DIFFERENT FILL-ORIGIN LEVEL: 0

LLC TOTAL     ACCESS:   10532836  HIT:    4245910  MISS:    6286926  HIT %:    40.3112  MISS %:    59.6888   MPKI: 31.4346
LLC LOAD      ACCESS:    2666034  HIT:    1605765  MISS:    1060269  HIT %:    60.2305  MISS %:    39.7695   MPKI: 5.30134
LLC RFO       ACCESS:    3507742  HIT:     980443  MISS:    2527299  HIT %:    27.9508  MISS %:    72.0492   MPKI: 12.6365
LLC PREFETCH  ACCESS:     298051  HIT:      91988  MISS:     206063  HIT %:    30.8632  MISS %:    69.1368   MPKI: 1.03031
AGUS PREFETCH L1 MISS: 0
LLC WRITEBACK ACCESS:    4005505  HIT:    1546795  MISS:    2458710  HIT %:    38.6167  MISS %:    61.3833   MPKI: 12.2935
LLC LOAD TRANSLATION ACCESS:      43122  HIT:      13987  MISS:      29135  HIT %:    32.4359  MISS %:    67.5641   MPKI: 0.145675
LLC TRANSLATION FROM L1D PREFETCHER ACCESS:      12382  HIT:       6932  MISS:       5450  HIT %:    55.9845  MISS %:    44.0155   MPKI: 0.02725
LLC PREFETCH  REQUESTED:          0  ISSUED:          0  USEFUL:       1113  USELESS:     210544
LLC USEFUL LOAD PREFETCHES:       1113 PREFETCH ISSUED TO LOWER LEVEL:     206063  ACCURACY: 0.540126
LLC TIMELY PREFETCHES:       1113 LATE PREFETCHES: 0 DROPPED PREFETCHES: 0
LLC PREFETCHES SAME FILL-ORIGIN LEVEL: 0 DIFFERENT FILL-ORIGIN LEVEL: 0
LLC AVERAGE MISS LATENCY: 134.74 cycles
LLC RQ	ACCESS:    6229305	FORWARD:          0	MERGED:          0	TO_CACHE:    6229280
LLC WQ	ACCESS:    4005505	FORWARD:         25	MERGED:          0	TO_CACHE:    4005505
LLC PQ	ACCESS:     298051	FORWARD:          0	MERGED:          0	TO_CACHE:     298051

LLC Dense regions hint to LLC: 0

RAW hits: 2487629
Loads Generated: 47719541
Loads sent to L1D: 45231912
Stores Generated: 34133593
Stores sent to L1D: 34133602
Major fault: 0 Minor fault: 9063
Allocated PAGES: 9063
Completed 

DRAM Statistics
 CHANNEL 0
 RQ ROW_BUFFER_HIT:    1788210  ROW_BUFFER_MISS:    2039718
 DBUS_CONGESTED:       1890
 WQ ROW_BUFFER_HIT:     563191  ROW_BUFFER_MISS:    2033612  FULL:      54695

 AVG_CONGESTED_CYCLE: 3
 All warmup complete: 2
Channel 0 Bank busy for read cycles: 0
Channel 0 Bank busy for write cycles: 0
Channel 0
Rank 0
0banks busy for read cycles: 173193694
0banks busy for write cycles: 270087
1banks busy for read cycles: 37731135
1banks busy for write cycles: 38361050
2banks busy for read cycles: 15028942
2banks busy for write cycles: 13493014
3banks busy for read cycles: 17334460
3banks busy for write cycles: 6396056
4banks busy for read cycles: 6997151
4banks busy for write cycles: 4123949
5banks busy for read cycles: 5501390
5banks busy for write cycles: 3456283
6banks busy for read cycles: 8215724
6banks busy for write cycles: 3478804
7banks busy for read cycles: 8167790
7banks busy for write cycles: 5971549
8banks busy for read cycles: 15002429
8banks busy for write cycles: 35444779

CPU 0 Branch Prediction Accuracy: 99.9446% MPKI: 0.08472 Average ROB Occupancy at Mispredict: 122.111
Branch types
NOT_BRANCH: 169425254 84.7126%
BRANCH_DIRECT_JUMP: 1658706 0.829353%
BRANCH_INDIRECT: 9991436 4.99572%
BRANCH_CONDITIONAL: 12080659 6.04033%
BRANCH_DIRECT_CALL: 2824055 1.41203%
BRANCH_INDIRECT_CALL: 597965 0.298982%
BRANCH_RETURN: 3421963 1.71098%
BRANCH_OTHER: 0 0%

DRAM PAGES: 1048576
Allocated PAGES: 9063
