
*** ChampSim Multicore Out-of-Order Simulator ***

Warmup Instructions: 50000000
Simulation Instructions: 200000000
Number of CPUs: 1
LLC sets: 2048
LLC ways: 16
Off-chip DRAM Size: 4096 MB Channels: 1 Width: 64-bit Data Rate: 6400 MT/s
CPU 0 runs traces/spec2k17/srv_71.champsimtrace.xz
.xz
BTB has LRU replacement policy
ITLB has LRU replacement policy
DTLB has LRU replacement policy
STLB has LRU replacement policy
L1I has LRU replacement policy
L1D has LRU replacement policy
Initialize SRRIP state for L2C
Initialize DRRIP state for LLC
Heartbeat CPU 0 instructions: 10000002 cycles: 2850930 heartbeat IPC: 3.50763 cumulative IPC: 3.50763 (Simulation time: 0 hr 0 min 32 sec) 
Heartbeat CPU 0 instructions: 20000000 cycles: 5696768 heartbeat IPC: 3.5139 cumulative IPC: 3.51076 (Simulation time: 0 hr 0 min 58 sec) 
Heartbeat CPU 0 instructions: 30000001 cycles: 8542316 heartbeat IPC: 3.51426 cumulative IPC: 3.51193 (Simulation time: 0 hr 1 min 22 sec) 
*** Reached end of trace for Core: 0 Repeating trace: traces/spec2k17/srv_71.champsimtrace.xz
Heartbeat CPU 0 instructions: 40000003 cycles: 11394558 heartbeat IPC: 3.50601 cumulative IPC: 3.51045 (Simulation time: 0 hr 1 min 46 sec) 
Heartbeat CPU 0 instructions: 50000003 cycles: 14253662 heartbeat IPC: 3.4976 cumulative IPC: 3.50787 (Simulation time: 0 hr 2 min 10 sec) 

Warmup complete CPU 0 instructions: 50000003 cycles: 14253662 (Simulation time: 0 hr 2 min 10 sec) 

Heartbeat CPU 0 instructions: 60000000 cycles: 46789258 heartbeat IPC: 0.307356 cumulative IPC: 0.307356 (Simulation time: 0 hr 2 min 52 sec) 
*** Reached end of trace for Core: 0 Repeating trace: traces/spec2k17/srv_71.champsimtrace.xz
Heartbeat CPU 0 instructions: 70000000 cycles: 79193385 heartbeat IPC: 0.308603 cumulative IPC: 0.307978 (Simulation time: 0 hr 3 min 32 sec) 
Heartbeat CPU 0 instructions: 80000002 cycles: 111523525 heartbeat IPC: 0.309309 cumulative IPC: 0.30842 (Simulation time: 0 hr 4 min 12 sec) 
Heartbeat CPU 0 instructions: 90000001 cycles: 143645651 heartbeat IPC: 0.311312 cumulative IPC: 0.309138 (Simulation time: 0 hr 4 min 53 sec) 
*** Reached end of trace for Core: 0 Repeating trace: traces/spec2k17/srv_71.champsimtrace.xz
Heartbeat CPU 0 instructions: 100000003 cycles: 175715510 heartbeat IPC: 0.311819 cumulative IPC: 0.309671 (Simulation time: 0 hr 5 min 34 sec) 
Heartbeat CPU 0 instructions: 110000000 cycles: 207772165 heartbeat IPC: 0.311948 cumulative IPC: 0.310048 (Simulation time: 0 hr 6 min 14 sec) 
Heartbeat CPU 0 instructions: 120000001 cycles: 239895641 heartbeat IPC: 0.311299 cumulative IPC: 0.310226 (Simulation time: 0 hr 6 min 55 sec) 
*** Reached end of trace for Core: 0 Repeating trace: traces/spec2k17/srv_71.champsimtrace.xz
Heartbeat CPU 0 instructions: 130000000 cycles: 271950861 heartbeat IPC: 0.311962 cumulative IPC: 0.310442 (Simulation time: 0 hr 7 min 36 sec) 
Heartbeat CPU 0 instructions: 140000000 cycles: 303991752 heartbeat IPC: 0.312101 cumulative IPC: 0.310625 (Simulation time: 0 hr 8 min 17 sec) 
Heartbeat CPU 0 instructions: 150000001 cycles: 336076778 heartbeat IPC: 0.311672 cumulative IPC: 0.31073 (Simulation time: 0 hr 8 min 58 sec) 
*** Reached end of trace for Core: 0 Repeating trace: traces/spec2k17/srv_71.champsimtrace.xz
Heartbeat CPU 0 instructions: 160000000 cycles: 368093206 heartbeat IPC: 0.31234 cumulative IPC: 0.310875 (Simulation time: 0 hr 9 min 39 sec) 
Heartbeat CPU 0 instructions: 170000000 cycles: 400126866 heartbeat IPC: 0.312172 cumulative IPC: 0.310983 (Simulation time: 0 hr 10 min 21 sec) 
Heartbeat CPU 0 instructions: 180000000 cycles: 432207926 heartbeat IPC: 0.31171 cumulative IPC: 0.311039 (Simulation time: 0 hr 11 min 4 sec) 
*** Reached end of trace for Core: 0 Repeating trace: traces/spec2k17/srv_71.champsimtrace.xz
Heartbeat CPU 0 instructions: 190000003 cycles: 464240619 heartbeat IPC: 0.312181 cumulative IPC: 0.31112 (Simulation time: 0 hr 11 min 46 sec) 
Heartbeat CPU 0 instructions: 200000000 cycles: 496279221 heartbeat IPC: 0.312123 cumulative IPC: 0.311187 (Simulation time: 0 hr 12 min 26 sec) 
Heartbeat CPU 0 instructions: 210000001 cycles: 528354551 heartbeat IPC: 0.311766 cumulative IPC: 0.311223 (Simulation time: 0 hr 13 min 6 sec) 
*** Reached end of trace for Core: 0 Repeating trace: traces/spec2k17/srv_71.champsimtrace.xz
Heartbeat CPU 0 instructions: 220000000 cycles: 560355971 heartbeat IPC: 0.312486 cumulative IPC: 0.311297 (Simulation time: 0 hr 13 min 44 sec) 
Heartbeat CPU 0 instructions: 230000000 cycles: 592404619 heartbeat IPC: 0.312026 cumulative IPC: 0.311337 (Simulation time: 0 hr 14 min 21 sec) 
Heartbeat CPU 0 instructions: 240000003 cycles: 624499424 heartbeat IPC: 0.311577 cumulative IPC: 0.31135 (Simulation time: 0 hr 14 min 53 sec) 
Heartbeat CPU 0 instructions: 250000003 cycles: 656474372 heartbeat IPC: 0.312745 cumulative IPC: 0.311419 (Simulation time: 0 hr 15 min 22 sec) 
Finished CPU 0 instructions: 200000000 cycles: 642220710 cumulative IPC: 0.311419 (Simulation time: 0 hr 15 min 22 sec) 

ChampSim completed all CPUs

Region of Interest Statistics

CPU 0 cumulative IPC: 0.311419 instructions: 200000000 cycles: 642220710
ITLB TOTAL     ACCESS:   35734554  HIT:   33462944  MISS:    2271610  HIT %:    93.6431  MISS %:     6.3569   MPKI: 11.3581
ITLB LOAD TRANSLATION ACCESS:   35734554  HIT:   33462944  MISS:    2271610  HIT %:    93.6431  MISS %:     6.3569   MPKI: 11.3581
ITLB PREFETCH  REQUESTED:          0  ISSUED:          0  USEFUL:          0  USELESS:          0
ITLB USEFUL LOAD PREFETCHES:          0 PREFETCH ISSUED TO LOWER LEVEL:          0  ACCURACY: -nan
ITLB TIMELY PREFETCHES:          0 LATE PREFETCHES: 0 DROPPED PREFETCHES: 0
ITLB PREFETCHES SAME FILL-ORIGIN LEVEL: 0 DIFFERENT FILL-ORIGIN LEVEL: 0
ITLB AVERAGE MISS LATENCY: 9.1684 cycles
ITLB RQ	ACCESS:   42032170	FORWARD:          0	MERGED:    5752723	TO_CACHE:   36279447

DTLB TOTAL     ACCESS:   45974189  HIT:   43916009  MISS:    2058180  HIT %:    95.5232  MISS %:    4.47682   MPKI: 10.2909
DTLB LOAD TRANSLATION ACCESS:   45974189  HIT:   43916009  MISS:    2058180  HIT %:    95.5232  MISS %:    4.47682   MPKI: 10.2909
DTLB PREFETCH  REQUESTED:          0  ISSUED:          0  USEFUL:          0  USELESS:          0
DTLB USEFUL LOAD PREFETCHES:          0 PREFETCH ISSUED TO LOWER LEVEL:          0  ACCURACY: -nan
DTLB TIMELY PREFETCHES:          0 LATE PREFETCHES: 0 DROPPED PREFETCHES: 0
DTLB PREFETCHES SAME FILL-ORIGIN LEVEL: 0 DIFFERENT FILL-ORIGIN LEVEL: 0
DTLB AVERAGE MISS LATENCY: 8.28601 cycles
DTLB RQ	ACCESS:   60777700	FORWARD:          0	MERGED:   14745743	TO_CACHE:   46031957

STLB TOTAL     ACCESS:   23697642  HIT:   23667032  MISS:      30610  HIT %:    99.8708  MISS %:   0.129169   MPKI: 0.15305
STLB LOAD TRANSLATION ACCESS:    4329790  HIT:    4301125  MISS:      28665  HIT %:     99.338  MISS %:   0.662041   MPKI: 0.143325
STLB TRANSLATION FROM L1D PREFETCHER ACCESS:   19367852  HIT:   19365907  MISS:       1945  HIT %:      99.99  MISS %:  0.0100424   MPKI: 0.009725
STLB PREFETCH  REQUESTED:          0  ISSUED:          0  USEFUL:       1720  USELESS:        221
STLB USEFUL LOAD PREFETCHES:       1720 PREFETCH ISSUED TO LOWER LEVEL:          0  ACCURACY: inf
STLB TIMELY PREFETCHES:       1720 LATE PREFETCHES: 1086 DROPPED PREFETCHES: 299377
STLB PREFETCHES SAME FILL-ORIGIN LEVEL: 0 DIFFERENT FILL-ORIGIN LEVEL: 0
STLB AVERAGE MISS LATENCY: 26.9755 cycles
STLB RQ	ACCESS:   27331853	FORWARD:          0	MERGED:    3332464	TO_CACHE:   23999389

STLB Hit, L1D data hit: 0
STLB Hit, L2C data hit: 0
STLB Hit, LLC data hit: 0
STLB Hit, LLC data miss: 0
STLB STLB hints to L2: 0
L1D TOTAL     ACCESS:   80075986  HIT:   73992342  MISS:    6083644  HIT %:    92.4027  MISS %:    7.59734   MPKI: 30.4182
L1D LOAD      ACCESS:   34122887  HIT:   30782512  MISS:    3340375  HIT %:    90.2107  MISS %:    9.78925   MPKI: 16.7019
L1D RFO       ACCESS:   24901865  HIT:   23775887  MISS:    1125978  HIT %:    95.4783  MISS %:    4.52166   MPKI: 5.62989
L1D PREFETCH  ACCESS:   21051234  HIT:   19433943  MISS:    1617291  HIT %:    92.3174  MISS %:    7.68264   MPKI: 8.08646
AGUS PREFETCH L1 MISS: 0
L1D PREFETCH  REQUESTED:   49609809  ISSUED:   49609768  USEFUL:    1213749  USELESS:     403512
L1D USEFUL LOAD PREFETCHES:    1213749 PREFETCH ISSUED TO LOWER LEVEL:    2425695  ACCURACY: 50.0372
L1D TIMELY PREFETCHES:    1213749 LATE PREFETCHES: 800918 DROPPED PREFETCHES: 330069
L1D PREFETCHES SAME FILL-ORIGIN LEVEL: 2425695 DIFFERENT FILL-ORIGIN LEVEL: 0
L1D AVERAGE MISS LATENCY: 4.76424e+07 cycles
L1D RQ	ACCESS:   46572382	FORWARD:          0	MERGED:   12008054	TO_CACHE:   34239454
L1D WQ	ACCESS:   26687093	FORWARD:     360744	MERGED:     148847	TO_CACHE:   26538246
L1D PQ	ACCESS:   26607705	FORWARD:          0	MERGED:    3569772	TO_CACHE:   23002063

L1D UNIQUE REGIONS ACCESSED: 0
L1D REGIONS CONFLICTS: 0
L1D Cross Page Prefetch Requests: 17886728
L1D Same Page Prefetch Requests: 10453765
L1D ROI Sum of L1D PQ occupancy: 320037169
L1D PREFETCHES PUSHED FROM L2C: 0
L1I TOTAL     ACCESS:   40347339  HIT:   28859444  MISS:   11487895  HIT %:    71.5275  MISS %:    28.4725   MPKI: 57.4395
L1I LOAD      ACCESS:   40347339  HIT:   28859444  MISS:   11487895  HIT %:    71.5275  MISS %:    28.4725   MPKI: 57.4395
L1I PREFETCH  REQUESTED:          0  ISSUED:          0  USEFUL:          0  USELESS:          0
L1I USEFUL LOAD PREFETCHES:          0 PREFETCH ISSUED TO LOWER LEVEL:          0  ACCURACY: -nan
L1I TIMELY PREFETCHES:          0 LATE PREFETCHES: 0 DROPPED PREFETCHES: 0
L1I PREFETCHES SAME FILL-ORIGIN LEVEL: 0 DIFFERENT FILL-ORIGIN LEVEL: 0
L1I AVERAGE MISS LATENCY: 15.5521 cycles
L1I RQ	ACCESS:   58270110	FORWARD:          0	MERGED:   16237940	TO_CACHE:   42032170

BTB TOTAL     ACCESS:   30381252  HIT:   17587959  MISS:   12793293  HIT %:    57.8908  MISS %:    42.1092   MPKI: 63.9665
BTB BRANCH_DIRECT_JUMP	ACCESS:    1874465  HIT:    1039962  MISS:     834503
BTB BRANCH_INDIRECT	ACCESS:   12070933  HIT:    7181479  MISS:    4889454
BTB BRANCH_CONDITIONAL	ACCESS:    7200933  HIT:    5892738  MISS:    1308195
BTB BRANCH_DIRECT_CALL	ACCESS:    3894488  HIT:    1805611  MISS:    2088877
BTB BRANCH_INDIRECT_CALL	ACCESS:     722993  HIT:     337731  MISS:     385262
BTB BRANCH_RETURN	ACCESS:    4617440  HIT:    1330438  MISS:    3287002
BTB BRANCH_OTHER ACCESS:          0  HIT:          0  MISS:          0

L2C TOTAL     ACCESS:   20388783  HIT:   19319780  MISS:    1069003  HIT %:    94.7569  MISS %:    5.24309   MPKI: 5.34502
L2C LOAD      ACCESS:   14027292  HIT:   13217140  MISS:     810152  HIT %:    94.2245  MISS %:    5.77554   MPKI: 4.05076
L2C DATA LOAD MPKI: 1.23725
L2C INSTRUCTION LOAD MPKI: 2.81351
L2C RFO       ACCESS:    1118492  HIT:    1053132  MISS:      65360  HIT %:    94.1564  MISS %:    5.84358   MPKI: 0.3268
L2C PREFETCH  ACCESS:    2425537  HIT:    2272291  MISS:     153246  HIT %:     93.682  MISS %:    6.31802   MPKI: 0.76623
AGUS PREFETCH L1 MISS: 0
L2C DATA PREFETCH MPKI: 0.76623
L2C INSTRUCTION PREFETCH MPKI: 0
L2C WRITEBACK ACCESS:    2360765  HIT:    2341918  MISS:      18847  HIT %:    99.2017  MISS %:   0.798343   MPKI: 0.094235
L2C LOAD TRANSLATION ACCESS:      28800  HIT:      22191  MISS:       6609  HIT %:    77.0521  MISS %:    22.9479   MPKI: 0.033045
L2C TRANSLATION FROM L1D PREFETCHER ACCESS:     427897  HIT:     413108  MISS:      14789  HIT %:    96.5438  MISS %:    3.45621   MPKI: 0.073945
L2C PREFETCH  REQUESTED:          0  ISSUED:          0  USEFUL:      18405  USELESS:     149719
L2C USEFUL LOAD PREFETCHES:      18405 PREFETCH ISSUED TO LOWER LEVEL:     153246  ACCURACY: 12.0101
L2C TIMELY PREFETCHES:      18405 LATE PREFETCHES: 0 DROPPED PREFETCHES: 0
L2C PREFETCHES SAME FILL-ORIGIN LEVEL: 0 DIFFERENT FILL-ORIGIN LEVEL: 0
L2C AVERAGE MISS LATENCY: 30.4044 cycles
L2C RQ	ACCESS:   15602543	FORWARD:          0	MERGED:          0	TO_CACHE:   15602483
L2C WQ	ACCESS:    2360765	FORWARD:        218	MERGED:          0	TO_CACHE:    2360765
L2C PQ	ACCESS:    2425695	FORWARD:          0	MERGED:          0	TO_CACHE:    2425537

L2C Instructions Evicting Data 237655
L2C Translations Evicting Data 10386
L2C Data Evicting Data 230294
L2C Instructions Evicting Instructions 316559
L2C Translations Evicting Instructions 9861
L2C Data Evicting Instructions 224302
L2C Instructions Evicting Translations 8488
L2C Translations Evicting Translations 1151
L2C Data Evicting Translations 11460
L2C Dense regions hint from L2: 0
PSCL5 TOTAL     ACCESS:     329562  HIT:     329562  MISS:          0  HIT %:        100  MISS %:          0   MPKI: 0
PSCL5 LOAD TRANSLATION ACCESS:      27579  HIT:      27579  MISS:          0  HIT %:        100  MISS %:          0   MPKI: 0
PSCL5 TRANSLATION FROM L1D PREFETCHER ACCESS:     301983  HIT:     301983  MISS:          0  HIT %:        100  MISS %:          0   MPKI: 0
PSCL5 PREFETCH  REQUESTED:          0  ISSUED:          0  USEFUL:          0  USELESS:          0
PSCL5 USEFUL LOAD PREFETCHES:          0 PREFETCH ISSUED TO LOWER LEVEL:          0  ACCURACY: -nan
PSCL5 TIMELY PREFETCHES:          0 LATE PREFETCHES: 0 DROPPED PREFETCHES: 0
PSCL5 PREFETCHES SAME FILL-ORIGIN LEVEL: 0 DIFFERENT FILL-ORIGIN LEVEL: 0

PSCL4 TOTAL     ACCESS:     208596  HIT:     208457  MISS:        139  HIT %:    99.9334  MISS %:   0.066636   MPKI: 0.000695
PSCL4 LOAD TRANSLATION ACCESS:      24700  HIT:      24561  MISS:        139  HIT %:    99.4372  MISS %:   0.562753   MPKI: 0.000695
PSCL4 TRANSLATION FROM L1D PREFETCHER ACCESS:     183896  HIT:     183896  MISS:          0  HIT %:        100  MISS %:          0   MPKI: 0
PSCL4 PREFETCH  REQUESTED:          0  ISSUED:          0  USEFUL:          0  USELESS:          0
PSCL4 USEFUL LOAD PREFETCHES:          0 PREFETCH ISSUED TO LOWER LEVEL:          0  ACCURACY: -nan
PSCL4 TIMELY PREFETCHES:          0 LATE PREFETCHES: 0 DROPPED PREFETCHES: 0
PSCL4 PREFETCHES SAME FILL-ORIGIN LEVEL: 0 DIFFERENT FILL-ORIGIN LEVEL: 0

PSCL3 TOTAL     ACCESS:     233794  HIT:     233655  MISS:        139  HIT %:    99.9405  MISS %:   0.059454   MPKI: 0.000695
PSCL3 LOAD TRANSLATION ACCESS:      25726  HIT:      25587  MISS:        139  HIT %:    99.4597  MISS %:   0.540309   MPKI: 0.000695
PSCL3 TRANSLATION FROM L1D PREFETCHER ACCESS:     208068  HIT:     208068  MISS:          0  HIT %:        100  MISS %:          0   MPKI: 0
PSCL3 PREFETCH  REQUESTED:          0  ISSUED:          0  USEFUL:          0  USELESS:          0
PSCL3 USEFUL LOAD PREFETCHES:          0 PREFETCH ISSUED TO LOWER LEVEL:          0  ACCURACY: -nan
PSCL3 TIMELY PREFETCHES:          0 LATE PREFETCHES: 0 DROPPED PREFETCHES: 0
PSCL3 PREFETCHES SAME FILL-ORIGIN LEVEL: 0 DIFFERENT FILL-ORIGIN LEVEL: 0

PSCL2 TOTAL     ACCESS:     115368  HIT:     114284  MISS:       1084  HIT %:    99.0604  MISS %:   0.939602   MPKI: 0.00542
PSCL2 LOAD TRANSLATION ACCESS:      27690  HIT:      26606  MISS:       1084  HIT %:    96.0852  MISS %:    3.91477   MPKI: 0.00542
PSCL2 TRANSLATION FROM L1D PREFETCHER ACCESS:      87678  HIT:      87678  MISS:          0  HIT %:        100  MISS %:          0   MPKI: 0
PSCL2 PREFETCH  REQUESTED:          0  ISSUED:          0  USEFUL:          0  USELESS:          0
PSCL2 USEFUL LOAD PREFETCHES:          0 PREFETCH ISSUED TO LOWER LEVEL:          0  ACCURACY: -nan
PSCL2 TIMELY PREFETCHES:          0 LATE PREFETCHES: 0 DROPPED PREFETCHES: 0
PSCL2 PREFETCHES SAME FILL-ORIGIN LEVEL: 0 DIFFERENT FILL-ORIGIN LEVEL: 0

LLC TOTAL     ACCESS:    1148436  HIT:    1141653  MISS:       6783  HIT %:    99.4094  MISS %:   0.590629   MPKI: 0.033915
LLC LOAD      ACCESS:     810152  HIT:     806660  MISS:       3492  HIT %:     99.569  MISS %:    0.43103   MPKI: 0.01746
LLC RFO       ACCESS:      65360  HIT:      64622  MISS:        738  HIT %:    98.8709  MISS %:    1.12913   MPKI: 0.00369
LLC PREFETCH  ACCESS:     153246  HIT:     151043  MISS:       2203  HIT %:    98.5624  MISS %:    1.43756   MPKI: 0.011015
AGUS PREFETCH L1 MISS: 0
LLC WRITEBACK ACCESS:      98279  HIT:      98219  MISS:         60  HIT %:    99.9389  MISS %:  0.0610507   MPKI: 0.0003
LLC LOAD TRANSLATION ACCESS:       6609  HIT:       6591  MISS:         18  HIT %:    99.7276  MISS %:   0.272356   MPKI: 9e-05
LLC TRANSLATION FROM L1D PREFETCHER ACCESS:      14790  HIT:      14518  MISS:        272  HIT %:    98.1609  MISS %:    1.83908   MPKI: 0.00136
LLC PREFETCH  REQUESTED:          0  ISSUED:          0  USEFUL:       2772  USELESS:       1390
LLC USEFUL LOAD PREFETCHES:       2772 PREFETCH ISSUED TO LOWER LEVEL:       2203  ACCURACY: 125.828
LLC TIMELY PREFETCHES:       2772 LATE PREFETCHES: 0 DROPPED PREFETCHES: 0
LLC PREFETCHES SAME FILL-ORIGIN LEVEL: 0 DIFFERENT FILL-ORIGIN LEVEL: 0
LLC AVERAGE MISS LATENCY: 147.082 cycles
LLC RQ	ACCESS:     896912	FORWARD:          0	MERGED:          0	TO_CACHE:     896912
LLC WQ	ACCESS:      98279	FORWARD:          0	MERGED:          0	TO_CACHE:      98279
LLC PQ	ACCESS:     153246	FORWARD:          0	MERGED:          0	TO_CACHE:     153246

LLC Dense regions hint to LLC: 0

RAW hits: 1412140
Loads Generated: 47984522
Loads sent to L1D: 46572382
Stores Generated: 26687087
Stores sent to L1D: 26687093
Major fault: 0 Minor fault: 1956
Allocated PAGES: 1956
Completed 

DRAM Statistics
 CHANNEL 0
 RQ ROW_BUFFER_HIT:       1493  ROW_BUFFER_MISS:       5230
 DBUS_CONGESTED:         11
 WQ ROW_BUFFER_HIT:         73  ROW_BUFFER_MISS:        862  FULL:          0

 AVG_CONGESTED_CYCLE: 4
 All warmup complete: 2
Channel 0 Bank busy for read cycles: 0
Channel 0 Bank busy for write cycles: 0
Channel 0
Rank 0
0banks busy for read cycles: 641382929
0banks busy for write cycles: 703
1banks busy for read cycles: 620647
1banks busy for write cycles: 99601
2banks busy for read cycles: 66994
2banks busy for write cycles: 11891
3banks busy for read cycles: 18646
3banks busy for write cycles: 4620
4banks busy for read cycles: 7764
4banks busy for write cycles: 1882
5banks busy for read cycles: 2952
5banks busy for write cycles: 1330
6banks busy for read cycles: 440
6banks busy for write cycles: 243
7banks busy for read cycles: 20
7banks busy for write cycles: 44
8banks busy for read cycles: 5
8banks busy for write cycles: 0

CPU 0 Branch Prediction Accuracy: 99.8837% MPKI: 0.20904 Average ROB Occupancy at Mispredict: 29.8733
Branch types
NOT_BRANCH: 164064559 82.0323%
BRANCH_DIRECT_JUMP: 1874465 0.937233%
BRANCH_INDIRECT: 12070933 6.03547%
BRANCH_CONDITIONAL: 12755089 6.37754%
BRANCH_DIRECT_CALL: 3894488 1.94724%
BRANCH_INDIRECT_CALL: 722993 0.361496%
BRANCH_RETURN: 4617440 2.30872%
BRANCH_OTHER: 0 0%

DRAM PAGES: 1048576
Allocated PAGES: 1956
