
*** ChampSim Multicore Out-of-Order Simulator ***

Warmup Instructions: 50000000
Simulation Instructions: 200000000
Number of CPUs: 1
LLC sets: 2048
LLC ways: 16
Off-chip DRAM Size: 4096 MB Channels: 1 Width: 64-bit Data Rate: 6400 MT/s
CPU 0 runs traces/spec2k17/srv_69.champsimtrace.xz
.xz
BTB has LRU replacement policy
ITLB has LRU replacement policy
DTLB has LRU replacement policy
STLB has LRU replacement policy
L1I has LRU replacement policy
L1D has LRU replacement policy
Initialize SRRIP state for L2C
Initialize DRRIP state for LLC
Heartbeat CPU 0 instructions: 10000001 cycles: 2780688 heartbeat IPC: 3.59623 cumulative IPC: 3.59623 (Simulation time: 0 hr 0 min 28 sec) 
Heartbeat CPU 0 instructions: 20000003 cycles: 5564289 heartbeat IPC: 3.59247 cumulative IPC: 3.59435 (Simulation time: 0 hr 1 min 5 sec) 
Heartbeat CPU 0 instructions: 30000000 cycles: 8338200 heartbeat IPC: 3.60502 cumulative IPC: 3.5979 (Simulation time: 0 hr 1 min 42 sec) 
*** Reached end of trace for Core: 0 Repeating trace: traces/spec2k17/srv_69.champsimtrace.xz
Heartbeat CPU 0 instructions: 40000003 cycles: 11114089 heartbeat IPC: 3.60245 cumulative IPC: 3.59904 (Simulation time: 0 hr 2 min 12 sec) 
Heartbeat CPU 0 instructions: 50000003 cycles: 13897742 heartbeat IPC: 3.5924 cumulative IPC: 3.59771 (Simulation time: 0 hr 2 min 37 sec) 

Warmup complete CPU 0 instructions: 50000003 cycles: 13897742 (Simulation time: 0 hr 2 min 37 sec) 

Heartbeat CPU 0 instructions: 60000000 cycles: 37263286 heartbeat IPC: 0.42798 cumulative IPC: 0.42798 (Simulation time: 0 hr 3 min 17 sec) 
*** Reached end of trace for Core: 0 Repeating trace: traces/spec2k17/srv_69.champsimtrace.xz
Heartbeat CPU 0 instructions: 70000001 cycles: 60810468 heartbeat IPC: 0.424679 cumulative IPC: 0.426324 (Simulation time: 0 hr 3 min 58 sec) 
Heartbeat CPU 0 instructions: 80000000 cycles: 84663941 heartbeat IPC: 0.419226 cumulative IPC: 0.423931 (Simulation time: 0 hr 4 min 36 sec) 
Heartbeat CPU 0 instructions: 90000001 cycles: 108802458 heartbeat IPC: 0.414276 cumulative IPC: 0.421475 (Simulation time: 0 hr 5 min 13 sec) 
*** Reached end of trace for Core: 0 Repeating trace: traces/spec2k17/srv_69.champsimtrace.xz
Heartbeat CPU 0 instructions: 100000000 cycles: 132494936 heartbeat IPC: 0.422075 cumulative IPC: 0.421595 (Simulation time: 0 hr 5 min 50 sec) 
Heartbeat CPU 0 instructions: 110000000 cycles: 155953898 heartbeat IPC: 0.426276 cumulative IPC: 0.422368 (Simulation time: 0 hr 6 min 28 sec) 
Heartbeat CPU 0 instructions: 120000002 cycles: 180271760 heartbeat IPC: 0.41122 cumulative IPC: 0.420739 (Simulation time: 0 hr 7 min 5 sec) 
*** Reached end of trace for Core: 0 Repeating trace: traces/spec2k17/srv_69.champsimtrace.xz
Heartbeat CPU 0 instructions: 130000000 cycles: 203810205 heartbeat IPC: 0.424837 cumulative IPC: 0.421247 (Simulation time: 0 hr 7 min 42 sec) 
Heartbeat CPU 0 instructions: 140000003 cycles: 227888755 heartbeat IPC: 0.415308 cumulative IPC: 0.420578 (Simulation time: 0 hr 8 min 20 sec) 
Heartbeat CPU 0 instructions: 150000000 cycles: 251785548 heartbeat IPC: 0.418466 cumulative IPC: 0.420366 (Simulation time: 0 hr 9 min 9 sec) 
*** Reached end of trace for Core: 0 Repeating trace: traces/spec2k17/srv_69.champsimtrace.xz
Heartbeat CPU 0 instructions: 160000001 cycles: 275231558 heartbeat IPC: 0.426512 cumulative IPC: 0.420918 (Simulation time: 0 hr 9 min 46 sec) 
Heartbeat CPU 0 instructions: 170000000 cycles: 298881933 heartbeat IPC: 0.422826 cumulative IPC: 0.421076 (Simulation time: 0 hr 10 min 23 sec) 
Heartbeat CPU 0 instructions: 180000003 cycles: 323034169 heartbeat IPC: 0.41404 cumulative IPC: 0.420526 (Simulation time: 0 hr 10 min 59 sec) 
*** Reached end of trace for Core: 0 Repeating trace: traces/spec2k17/srv_69.champsimtrace.xz
Heartbeat CPU 0 instructions: 190000000 cycles: 346362274 heartbeat IPC: 0.428667 cumulative IPC: 0.421098 (Simulation time: 0 hr 11 min 34 sec) 
Heartbeat CPU 0 instructions: 200000000 cycles: 370190254 heartbeat IPC: 0.419675 cumulative IPC: 0.421002 (Simulation time: 0 hr 12 min 10 sec) 
Heartbeat CPU 0 instructions: 210000002 cycles: 394296307 heartbeat IPC: 0.414834 cumulative IPC: 0.420611 (Simulation time: 0 hr 12 min 45 sec) 
*** Reached end of trace for Core: 0 Repeating trace: traces/spec2k17/srv_69.champsimtrace.xz
Heartbeat CPU 0 instructions: 220000000 cycles: 417545209 heartbeat IPC: 0.430128 cumulative IPC: 0.42116 (Simulation time: 0 hr 13 min 20 sec) 
Heartbeat CPU 0 instructions: 230000003 cycles: 441514148 heartbeat IPC: 0.417207 cumulative IPC: 0.420938 (Simulation time: 0 hr 13 min 55 sec) 
Heartbeat CPU 0 instructions: 240000000 cycles: 465570345 heartbeat IPC: 0.415693 cumulative IPC: 0.420659 (Simulation time: 0 hr 14 min 29 sec) 
*** Reached end of trace for Core: 0 Repeating trace: traces/spec2k17/srv_69.champsimtrace.xz
Heartbeat CPU 0 instructions: 250000003 cycles: 488620552 heartbeat IPC: 0.433836 cumulative IPC: 0.421298 (Simulation time: 0 hr 15 min 0 sec) 
Finished CPU 0 instructions: 200000000 cycles: 474722810 cumulative IPC: 0.421298 (Simulation time: 0 hr 15 min 0 sec) 

ChampSim completed all CPUs

Region of Interest Statistics

CPU 0 cumulative IPC: 0.421298 instructions: 200000000 cycles: 474722810
ITLB TOTAL     ACCESS:   31682711  HIT:   30867247  MISS:     815464  HIT %:    97.4262  MISS %:    2.57385   MPKI: 4.07732
ITLB LOAD TRANSLATION ACCESS:   31682711  HIT:   30867247  MISS:     815464  HIT %:    97.4262  MISS %:    2.57385   MPKI: 4.07732
ITLB PREFETCH  REQUESTED:          0  ISSUED:          0  USEFUL:          0  USELESS:          0
ITLB USEFUL LOAD PREFETCHES:          0 PREFETCH ISSUED TO LOWER LEVEL:          0  ACCURACY: -nan
ITLB TIMELY PREFETCHES:          0 LATE PREFETCHES: 0 DROPPED PREFETCHES: 0
ITLB PREFETCHES SAME FILL-ORIGIN LEVEL: 0 DIFFERENT FILL-ORIGIN LEVEL: 0
ITLB AVERAGE MISS LATENCY: 15.5683 cycles
ITLB RQ	ACCESS:   38413330	FORWARD:          0	MERGED:    6538332	TO_CACHE:   31874998

DTLB TOTAL     ACCESS:   37929879  HIT:   35467577  MISS:    2462302  HIT %:    93.5083  MISS %:    6.49172   MPKI: 12.3115
DTLB LOAD TRANSLATION ACCESS:   37929879  HIT:   35467577  MISS:    2462302  HIT %:    93.5083  MISS %:    6.49172   MPKI: 12.3115
DTLB PREFETCH  REQUESTED:          0  ISSUED:          0  USEFUL:          0  USELESS:          0
DTLB USEFUL LOAD PREFETCHES:          0 PREFETCH ISSUED TO LOWER LEVEL:          0  ACCURACY: -nan
DTLB TIMELY PREFETCHES:          0 LATE PREFETCHES: 0 DROPPED PREFETCHES: 0
DTLB PREFETCHES SAME FILL-ORIGIN LEVEL: 0 DIFFERENT FILL-ORIGIN LEVEL: 0
DTLB AVERAGE MISS LATENCY: 13.7441 cycles
DTLB RQ	ACCESS:   48361959	FORWARD:          0	MERGED:   10296112	TO_CACHE:   38065847

STLB TOTAL     ACCESS:   10637363  HIT:   10176328  MISS:     461035  HIT %:    95.6659  MISS %:    4.33411   MPKI: 2.30518
STLB LOAD TRANSLATION ACCESS:    3277766  HIT:    2829340  MISS:     448426  HIT %:    86.3192  MISS %:    13.6808   MPKI: 2.24213
STLB TRANSLATION FROM L1D PREFETCHER ACCESS:    7359597  HIT:    7346988  MISS:      12609  HIT %:    99.8287  MISS %:   0.171327   MPKI: 0.063045
STLB PREFETCH  REQUESTED:          0  ISSUED:          0  USEFUL:      10059  USELESS:       2539
STLB USEFUL LOAD PREFETCHES:      10059 PREFETCH ISSUED TO LOWER LEVEL:          0  ACCURACY: inf
STLB TIMELY PREFETCHES:      10059 LATE PREFETCHES: 2659 DROPPED PREFETCHES: 292950
STLB PREFETCHES SAME FILL-ORIGIN LEVEL: 0 DIFFERENT FILL-ORIGIN LEVEL: 0
STLB AVERAGE MISS LATENCY: 39.8883 cycles
STLB RQ	ACCESS:   12360040	FORWARD:          0	MERGED:    1425889	TO_CACHE:   10934151

STLB Hit, L1D data hit: 0
STLB Hit, L2C data hit: 0
STLB Hit, LLC data hit: 0
STLB Hit, LLC data miss: 0
STLB STLB hints to L2: 0
L1D TOTAL     ACCESS:   56458723  HIT:   53919000  MISS:    2539723  HIT %:    95.5016  MISS %:    4.49837   MPKI: 12.6986
L1D LOAD      ACCESS:   28304652  HIT:   26275827  MISS:    2028825  HIT %:    92.8322  MISS %:    7.16781   MPKI: 10.1441
L1D RFO       ACCESS:   19514550  HIT:   19178081  MISS:     336469  HIT %:    98.2758  MISS %:     1.7242   MPKI: 1.68234
L1D PREFETCH  ACCESS:    8639521  HIT:    8465092  MISS:     174429  HIT %:     97.981  MISS %:    2.01897   MPKI: 0.872145
AGUS PREFETCH L1 MISS: 0
L1D PREFETCH  REQUESTED:   20351828  ISSUED:   20351480  USEFUL:      99071  USELESS:      75326
L1D USEFUL LOAD PREFETCHES:      99071 PREFETCH ISSUED TO LOWER LEVEL:     218660  ACCURACY: 45.3082
L1D TIMELY PREFETCHES:      99071 LATE PREFETCHES: 43918 DROPPED PREFETCHES: 309483
L1D PREFETCHES SAME FILL-ORIGIN LEVEL: 218660 DIFFERENT FILL-ORIGIN LEVEL: 0
L1D AVERAGE MISS LATENCY: 5.71066e+06 cycles
L1D RQ	ACCESS:   42639937	FORWARD:          0	MERGED:   13989109	TO_CACHE:   28438668
L1D WQ	ACCESS:   20255400	FORWARD:     260400	MERGED:     332109	TO_CACHE:   19923291
L1D PQ	ACCESS:   11269206	FORWARD:          0	MERGED:    2138692	TO_CACHE:    9082274

L1D UNIQUE REGIONS ACCESSED: 0
L1D REGIONS CONFLICTS: 0
L1D Cross Page Prefetch Requests: 7802978
L1D Same Page Prefetch Requests: 5112560
L1D ROI Sum of L1D PQ occupancy: 135678634
L1D PREFETCHES PUSHED FROM L2C: 0
L1I TOTAL     ACCESS:   36780394  HIT:   31721631  MISS:    5058763  HIT %:     86.246  MISS %:     13.754   MPKI: 25.2938
L1I LOAD      ACCESS:   36780394  HIT:   31721631  MISS:    5058763  HIT %:     86.246  MISS %:     13.754   MPKI: 25.2938
L1I PREFETCH  REQUESTED:          0  ISSUED:          0  USEFUL:          0  USELESS:          0
L1I USEFUL LOAD PREFETCHES:          0 PREFETCH ISSUED TO LOWER LEVEL:          0  ACCURACY: -nan
L1I TIMELY PREFETCHES:          0 LATE PREFETCHES: 0 DROPPED PREFETCHES: 0
L1I PREFETCHES SAME FILL-ORIGIN LEVEL: 0 DIFFERENT FILL-ORIGIN LEVEL: 0
L1I AVERAGE MISS LATENCY: 27.6171 cycles
L1I RQ	ACCESS:   57431891	FORWARD:          0	MERGED:   19018561	TO_CACHE:   38413330

BTB TOTAL     ACCESS:   23164670  HIT:   18167924  MISS:    4996746  HIT %:    78.4295  MISS %:    21.5705   MPKI: 24.9837
BTB BRANCH_DIRECT_JUMP	ACCESS:    1914726  HIT:    1629531  MISS:     285195
BTB BRANCH_INDIRECT	ACCESS:    9756590  HIT:    7380331  MISS:    2376259
BTB BRANCH_CONDITIONAL	ACCESS:    4774695  HIT:    4326607  MISS:     448088
BTB BRANCH_DIRECT_CALL	ACCESS:    2648257  HIT:    2097355  MISS:     550902
BTB BRANCH_INDIRECT_CALL	ACCESS:     697289  HIT:     631848  MISS:      65441
BTB BRANCH_RETURN	ACCESS:    3373113  HIT:    2102252  MISS:    1270861
BTB BRANCH_OTHER ACCESS:          0  HIT:          0  MISS:          0

L2C TOTAL     ACCESS:    9482948  HIT:    5697020  MISS:    3785928  HIT %:    60.0765  MISS %:    39.9235   MPKI: 18.9296
L2C LOAD      ACCESS:    7043593  HIT:    3802823  MISS:    3240770  HIT %:    53.9898  MISS %:    46.0102   MPKI: 16.2038
L2C DATA LOAD MPKI: 5.38187
L2C INSTRUCTION LOAD MPKI: 10.822
L2C RFO       ACCESS:     336156  HIT:     163530  MISS:     172626  HIT %:    48.6471  MISS %:    51.3529   MPKI: 0.86313
L2C PREFETCH  ACCESS:     218629  HIT:     132709  MISS:      85920  HIT %:    60.7005  MISS %:    39.2995   MPKI: 0.4296
AGUS PREFETCH L1 MISS: 0
L2C DATA PREFETCH MPKI: 0.4296
L2C INSTRUCTION PREFETCH MPKI: 0
L2C WRITEBACK ACCESS:     967107  HIT:     910579  MISS:      56528  HIT %:    94.1549  MISS %:    5.84506   MPKI: 0.28264
L2C LOAD TRANSLATION ACCESS:     562332  HIT:     363972  MISS:     198360  HIT %:    64.7255  MISS %:    35.2745   MPKI: 0.9918
L2C TRANSLATION FROM L1D PREFETCHER ACCESS:     355131  HIT:     323407  MISS:      31724  HIT %:     91.067  MISS %:    8.93304   MPKI: 0.15862
L2C PREFETCH  REQUESTED:          0  ISSUED:          0  USEFUL:      25429  USELESS:      92004
L2C USEFUL LOAD PREFETCHES:      25429 PREFETCH ISSUED TO LOWER LEVEL:      85920  ACCURACY: 29.5961
L2C TIMELY PREFETCHES:      25429 LATE PREFETCHES: 0 DROPPED PREFETCHES: 0
L2C PREFETCHES SAME FILL-ORIGIN LEVEL: 0 DIFFERENT FILL-ORIGIN LEVEL: 0
L2C AVERAGE MISS LATENCY: 42.1489 cycles
L2C RQ	ACCESS:    8297289	FORWARD:          0	MERGED:          0	TO_CACHE:    8297212
L2C WQ	ACCESS:     967107	FORWARD:        108	MERGED:          0	TO_CACHE:     967107
L2C PQ	ACCESS:     218660	FORWARD:          0	MERGED:          0	TO_CACHE:     218629

L2C Instructions Evicting Data 785613
L2C Translations Evicting Data 84120
L2C Data Evicting Data 500270
L2C Instructions Evicting Instructions 1243116
L2C Translations Evicting Instructions 134115
L2C Data Evicting Instructions 755558
L2C Instructions Evicting Translations 135667
L2C Translations Evicting Translations 11849
L2C Data Evicting Translations 79092
L2C Dense regions hint from L2: 0
PSCL5 TOTAL     ACCESS:     717416  HIT:     717416  MISS:          0  HIT %:        100  MISS %:          0   MPKI: 0
PSCL5 LOAD TRANSLATION ACCESS:     445767  HIT:     445767  MISS:          0  HIT %:        100  MISS %:          0   MPKI: 0
PSCL5 TRANSLATION FROM L1D PREFETCHER ACCESS:     271649  HIT:     271649  MISS:          0  HIT %:        100  MISS %:          0   MPKI: 0
PSCL5 PREFETCH  REQUESTED:          0  ISSUED:          0  USEFUL:          0  USELESS:          0
PSCL5 USEFUL LOAD PREFETCHES:          0 PREFETCH ISSUED TO LOWER LEVEL:          0  ACCURACY: -nan
PSCL5 TIMELY PREFETCHES:          0 LATE PREFETCHES: 0 DROPPED PREFETCHES: 0
PSCL5 PREFETCHES SAME FILL-ORIGIN LEVEL: 0 DIFFERENT FILL-ORIGIN LEVEL: 0

PSCL4 TOTAL     ACCESS:     635195  HIT:     633883  MISS:       1312  HIT %:    99.7934  MISS %:   0.206551   MPKI: 0.00656
PSCL4 LOAD TRANSLATION ACCESS:     419198  HIT:     417886  MISS:       1312  HIT %:     99.687  MISS %:   0.312979   MPKI: 0.00656
PSCL4 TRANSLATION FROM L1D PREFETCHER ACCESS:     215997  HIT:     215997  MISS:          0  HIT %:        100  MISS %:          0   MPKI: 0
PSCL4 PREFETCH  REQUESTED:          0  ISSUED:          0  USEFUL:          0  USELESS:          0
PSCL4 USEFUL LOAD PREFETCHES:          0 PREFETCH ISSUED TO LOWER LEVEL:          0  ACCURACY: -nan
PSCL4 TIMELY PREFETCHES:          0 LATE PREFETCHES: 0 DROPPED PREFETCHES: 0
PSCL4 PREFETCHES SAME FILL-ORIGIN LEVEL: 0 DIFFERENT FILL-ORIGIN LEVEL: 0

PSCL3 TOTAL     ACCESS:     657510  HIT:     653771  MISS:       3739  HIT %:    99.4313  MISS %:   0.568661   MPKI: 0.018695
PSCL3 LOAD TRANSLATION ACCESS:     442676  HIT:     438937  MISS:       3739  HIT %:    99.1554  MISS %:   0.844636   MPKI: 0.018695
PSCL3 TRANSLATION FROM L1D PREFETCHER ACCESS:     214834  HIT:     214834  MISS:          0  HIT %:        100  MISS %:          0   MPKI: 0
PSCL3 PREFETCH  REQUESTED:          0  ISSUED:          0  USEFUL:          0  USELESS:          0
PSCL3 USEFUL LOAD PREFETCHES:          0 PREFETCH ISSUED TO LOWER LEVEL:          0  ACCURACY: -nan
PSCL3 TIMELY PREFETCHES:          0 LATE PREFETCHES: 0 DROPPED PREFETCHES: 0
PSCL3 PREFETCHES SAME FILL-ORIGIN LEVEL: 0 DIFFERENT FILL-ORIGIN LEVEL: 0

PSCL2 TOTAL     ACCESS:     488688  HIT:     370322  MISS:     118366  HIT %:    75.7788  MISS %:    24.2212   MPKI: 0.59183
PSCL2 LOAD TRANSLATION ACCESS:     452492  HIT:     334126  MISS:     118366  HIT %:    73.8413  MISS %:    26.1587   MPKI: 0.59183
PSCL2 TRANSLATION FROM L1D PREFETCHER ACCESS:      36196  HIT:      36196  MISS:          0  HIT %:        100  MISS %:          0   MPKI: 0
PSCL2 PREFETCH  REQUESTED:          0  ISSUED:          0  USEFUL:          0  USELESS:          0
PSCL2 USEFUL LOAD PREFETCHES:          0 PREFETCH ISSUED TO LOWER LEVEL:          0  ACCURACY: -nan
PSCL2 TIMELY PREFETCHES:          0 LATE PREFETCHES: 0 DROPPED PREFETCHES: 0
PSCL2 PREFETCHES SAME FILL-ORIGIN LEVEL: 0 DIFFERENT FILL-ORIGIN LEVEL: 0

LLC TOTAL     ACCESS:    4201838  HIT:    3887791  MISS:     314047  HIT %:     92.526  MISS %:    7.47404   MPKI: 1.57024
LLC LOAD      ACCESS:    3240770  HIT:    2999048  MISS:     241722  HIT %:    92.5412  MISS %:    7.45878   MPKI: 1.20861
LLC RFO       ACCESS:     172622  HIT:     124447  MISS:      48175  HIT %:    72.0922  MISS %:    27.9078   MPKI: 0.240875
LLC PREFETCH  ACCESS:      85920  HIT:      73880  MISS:      12040  HIT %:     85.987  MISS %:     14.013   MPKI: 0.0602
AGUS PREFETCH L1 MISS: 0
LLC WRITEBACK ACCESS:     472442  HIT:     468777  MISS:       3665  HIT %:    99.2242  MISS %:   0.775757   MPKI: 0.018325
LLC LOAD TRANSLATION ACCESS:     198360  HIT:     191753  MISS:       6607  HIT %:    96.6692  MISS %:    3.33081   MPKI: 0.033035
LLC TRANSLATION FROM L1D PREFETCHER ACCESS:      31724  HIT:      29886  MISS:       1838  HIT %:    94.2063  MISS %:    5.79372   MPKI: 0.00919
LLC PREFETCH  REQUESTED:          0  ISSUED:          0  USEFUL:       2872  USELESS:      10568
LLC USEFUL LOAD PREFETCHES:       2872 PREFETCH ISSUED TO LOWER LEVEL:      12040  ACCURACY: 23.8538
LLC TIMELY PREFETCHES:       2872 LATE PREFETCHES: 0 DROPPED PREFETCHES: 0
LLC PREFETCHES SAME FILL-ORIGIN LEVEL: 0 DIFFERENT FILL-ORIGIN LEVEL: 0
LLC AVERAGE MISS LATENCY: 151.853 cycles
LLC RQ	ACCESS:    3643480	FORWARD:          0	MERGED:          0	TO_CACHE:    3643476
LLC WQ	ACCESS:     472442	FORWARD:          4	MERGED:          0	TO_CACHE:     472442
LLC PQ	ACCESS:      85920	FORWARD:          0	MERGED:          0	TO_CACHE:      85920

LLC Dense regions hint to LLC: 0

RAW hits: 2738174
Loads Generated: 45378115
Loads sent to L1D: 42639937
Stores Generated: 20255404
Stores sent to L1D: 20255400
Major fault: 0 Minor fault: 5460
Allocated PAGES: 5460
Completed 

DRAM Statistics
 CHANNEL 0
 RQ ROW_BUFFER_HIT:      55633  ROW_BUFFER_MISS:     254749
 DBUS_CONGESTED:        140
 WQ ROW_BUFFER_HIT:      29979  ROW_BUFFER_MISS:     179191  FULL:          0

 AVG_CONGESTED_CYCLE: 4
 All warmup complete: 2
Channel 0 Bank busy for read cycles: 0
Channel 0 Bank busy for write cycles: 0
Channel 0
Rank 0
0banks busy for read cycles: 416307641
0banks busy for write cycles: 120570
1banks busy for read cycles: 28860428
1banks busy for write cycles: 17137077
2banks busy for read cycles: 4160947
2banks busy for write cycles: 3923784
3banks busy for read cycles: 642583
3banks busy for write cycles: 1344221
4banks busy for read cycles: 213930
4banks busy for write cycles: 713186
5banks busy for read cycles: 77061
5banks busy for write cycles: 443948
6banks busy for read cycles: 40323
6banks busy for write cycles: 287110
7banks busy for read cycles: 27006
7banks busy for write cycles: 216199
8banks busy for read cycles: 26595
8banks busy for write cycles: 180202

CPU 0 Branch Prediction Accuracy: 99.7309% MPKI: 0.485 Average ROB Occupancy at Mispredict: 30.981
Branch types
NOT_BRANCH: 163956013 81.978%
BRANCH_DIRECT_JUMP: 1914726 0.957363%
BRANCH_INDIRECT: 9756590 4.87829%
BRANCH_CONDITIONAL: 17653765 8.82688%
BRANCH_DIRECT_CALL: 2648257 1.32413%
BRANCH_INDIRECT_CALL: 697289 0.348645%
BRANCH_RETURN: 3373113 1.68656%
BRANCH_OTHER: 0 0%

DRAM PAGES: 1048576
Allocated PAGES: 5460
