
*** ChampSim Multicore Out-of-Order Simulator ***

Warmup Instructions: 50000000
Simulation Instructions: 200000000
Number of CPUs: 1
LLC sets: 2048
LLC ways: 16
Off-chip DRAM Size: 4096 MB Channels: 1 Width: 64-bit Data Rate: 6400 MT/s
CPU 0 runs traces/spec2k17/srv_29.champsimtrace.xz
.xz
BTB has LRU replacement policy
ITLB has LRU replacement policy
DTLB has LRU replacement policy
STLB has LRU replacement policy
L1I has LRU replacement policy
L1D has LRU replacement policy
Initialize SRRIP state for L2C
Initialize DRRIP state for LLC
Heartbeat CPU 0 instructions: 10000000 cycles: 2808993 heartbeat IPC: 3.55999 cumulative IPC: 3.55999 (Simulation time: 0 hr 0 min 55 sec) 
Heartbeat CPU 0 instructions: 20000000 cycles: 5613909 heartbeat IPC: 3.56517 cumulative IPC: 3.56258 (Simulation time: 0 hr 1 min 41 sec) 
Heartbeat CPU 0 instructions: 30000003 cycles: 8421650 heartbeat IPC: 3.56158 cumulative IPC: 3.56225 (Simulation time: 0 hr 2 min 20 sec) 
*** Reached end of trace for Core: 0 Repeating trace: traces/spec2k17/srv_29.champsimtrace.xz
Heartbeat CPU 0 instructions: 40000000 cycles: 11228973 heartbeat IPC: 3.56211 cumulative IPC: 3.56221 (Simulation time: 0 hr 3 min 3 sec) 
Heartbeat CPU 0 instructions: 50000000 cycles: 14035180 heartbeat IPC: 3.56353 cumulative IPC: 3.56248 (Simulation time: 0 hr 3 min 45 sec) 

Warmup complete CPU 0 instructions: 50000004 cycles: 14035181 (Simulation time: 0 hr 3 min 45 sec) 

Heartbeat CPU 0 instructions: 60000001 cycles: 28073836 heartbeat IPC: 0.712319 cumulative IPC: 0.712319 (Simulation time: 0 hr 4 min 34 sec) 
*** Reached end of trace for Core: 0 Repeating trace: traces/spec2k17/srv_29.champsimtrace.xz
Heartbeat CPU 0 instructions: 70000000 cycles: 42196391 heartbeat IPC: 0.708087 cumulative IPC: 0.710197 (Simulation time: 0 hr 5 min 27 sec) 
Heartbeat CPU 0 instructions: 80000000 cycles: 56153523 heartbeat IPC: 0.71648 cumulative IPC: 0.712279 (Simulation time: 0 hr 6 min 17 sec) 
Heartbeat CPU 0 instructions: 90000000 cycles: 70106685 heartbeat IPC: 0.716683 cumulative IPC: 0.713375 (Simulation time: 0 hr 7 min 13 sec) 
*** Reached end of trace for Core: 0 Repeating trace: traces/spec2k17/srv_29.champsimtrace.xz
Heartbeat CPU 0 instructions: 100000001 cycles: 84134494 heartbeat IPC: 0.71287 cumulative IPC: 0.713274 (Simulation time: 0 hr 8 min 6 sec) 
Heartbeat CPU 0 instructions: 110000000 cycles: 97842712 heartbeat IPC: 0.729489 cumulative IPC: 0.715926 (Simulation time: 0 hr 9 min 0 sec) 
Heartbeat CPU 0 instructions: 120000002 cycles: 112067931 heartbeat IPC: 0.702977 cumulative IPC: 0.714047 (Simulation time: 0 hr 9 min 59 sec) 
*** Reached end of trace for Core: 0 Repeating trace: traces/spec2k17/srv_29.champsimtrace.xz
Heartbeat CPU 0 instructions: 130000002 cycles: 126006847 heartbeat IPC: 0.717416 cumulative IPC: 0.714466 (Simulation time: 0 hr 10 min 53 sec) 
Heartbeat CPU 0 instructions: 140000001 cycles: 139808881 heartbeat IPC: 0.724531 cumulative IPC: 0.715571 (Simulation time: 0 hr 11 min 38 sec) 
Heartbeat CPU 0 instructions: 150000003 cycles: 154024641 heartbeat IPC: 0.703445 cumulative IPC: 0.714339 (Simulation time: 0 hr 12 min 18 sec) 
*** Reached end of trace for Core: 0 Repeating trace: traces/spec2k17/srv_29.champsimtrace.xz
Heartbeat CPU 0 instructions: 160000001 cycles: 168003000 heartbeat IPC: 0.715391 cumulative IPC: 0.714435 (Simulation time: 0 hr 13 min 3 sec) 
Heartbeat CPU 0 instructions: 170000001 cycles: 181765808 heartbeat IPC: 0.726596 cumulative IPC: 0.715433 (Simulation time: 0 hr 14 min 1 sec) 
Heartbeat CPU 0 instructions: 180000001 cycles: 195740560 heartbeat IPC: 0.715576 cumulative IPC: 0.715444 (Simulation time: 0 hr 15 min 0 sec) 
Heartbeat CPU 0 instructions: 190000000 cycles: 209638143 heartbeat IPC: 0.71955 cumulative IPC: 0.715736 (Simulation time: 0 hr 15 min 59 sec) 
*** Reached end of trace for Core: 0 Repeating trace: traces/spec2k17/srv_29.champsimtrace.xz
Heartbeat CPU 0 instructions: 200000003 cycles: 223711644 heartbeat IPC: 0.710555 cumulative IPC: 0.715388 (Simulation time: 0 hr 16 min 56 sec) 
Heartbeat CPU 0 instructions: 210000003 cycles: 237649731 heartbeat IPC: 0.717459 cumulative IPC: 0.715517 (Simulation time: 0 hr 17 min 52 sec) 
Heartbeat CPU 0 instructions: 220000000 cycles: 251561609 heartbeat IPC: 0.71881 cumulative IPC: 0.71571 (Simulation time: 0 hr 18 min 47 sec) 
*** Reached end of trace for Core: 0 Repeating trace: traces/spec2k17/srv_29.champsimtrace.xz
Heartbeat CPU 0 instructions: 230000002 cycles: 265622440 heartbeat IPC: 0.711196 cumulative IPC: 0.715457 (Simulation time: 0 hr 19 min 44 sec) 
Heartbeat CPU 0 instructions: 240000001 cycles: 279548402 heartbeat IPC: 0.718083 cumulative IPC: 0.715595 (Simulation time: 0 hr 20 min 41 sec) 
Heartbeat CPU 0 instructions: 250000002 cycles: 293452381 heartbeat IPC: 0.719219 cumulative IPC: 0.715776 (Simulation time: 0 hr 21 min 34 sec) 
Finished CPU 0 instructions: 200000002 cycles: 279417201 cumulative IPC: 0.715775 (Simulation time: 0 hr 21 min 34 sec) 

ChampSim completed all CPUs

Region of Interest Statistics

CPU 0 cumulative IPC: 0.715775 instructions: 200000002 cycles: 279417201
ITLB TOTAL     ACCESS:   32457130  HIT:   32347673  MISS:     109457  HIT %:    99.6628  MISS %:   0.337236   MPKI: 0.547285
ITLB LOAD TRANSLATION ACCESS:   32457130  HIT:   32347673  MISS:     109457  HIT %:    99.6628  MISS %:   0.337236   MPKI: 0.547285
ITLB PREFETCH  REQUESTED:          0  ISSUED:          0  USEFUL:          0  USELESS:          0
ITLB USEFUL LOAD PREFETCHES:          0 PREFETCH ISSUED TO LOWER LEVEL:          0  ACCURACY: -nan
ITLB TIMELY PREFETCHES:          0 LATE PREFETCHES: 0 DROPPED PREFETCHES: 0
ITLB PREFETCHES SAME FILL-ORIGIN LEVEL: 0 DIFFERENT FILL-ORIGIN LEVEL: 0
ITLB AVERAGE MISS LATENCY: 10.5953 cycles
ITLB RQ	ACCESS:   38257900	FORWARD:          0	MERGED:    5765078	TO_CACHE:   32492822

DTLB TOTAL     ACCESS:   40775377  HIT:   38967230  MISS:    1808147  HIT %:    95.5656  MISS %:    4.43441   MPKI: 9.04073
DTLB LOAD TRANSLATION ACCESS:   40775377  HIT:   38967230  MISS:    1808147  HIT %:    95.5656  MISS %:    4.43441   MPKI: 9.04073
DTLB PREFETCH  REQUESTED:          0  ISSUED:          0  USEFUL:          0  USELESS:          0
DTLB USEFUL LOAD PREFETCHES:          0 PREFETCH ISSUED TO LOWER LEVEL:          0  ACCURACY: -nan
DTLB TIMELY PREFETCHES:          0 LATE PREFETCHES: 0 DROPPED PREFETCHES: 0
DTLB PREFETCHES SAME FILL-ORIGIN LEVEL: 0 DIFFERENT FILL-ORIGIN LEVEL: 0
DTLB AVERAGE MISS LATENCY: 9.822 cycles
DTLB RQ	ACCESS:   54760428	FORWARD:          0	MERGED:   13808887	TO_CACHE:   40951541

STLB TOTAL     ACCESS:   18808080  HIT:   18720697  MISS:      87383  HIT %:    99.5354  MISS %:   0.464604   MPKI: 0.436915
STLB LOAD TRANSLATION ACCESS:    1917604  HIT:    1830584  MISS:      87020  HIT %:     95.462  MISS %:    4.53795   MPKI: 0.4351
STLB TRANSLATION FROM L1D PREFETCHER ACCESS:   16890476  HIT:   16890113  MISS:        363  HIT %:    99.9979  MISS %: 0.00214914   MPKI: 0.001815
STLB PREFETCH  REQUESTED:          0  ISSUED:          0  USEFUL:        216  USELESS:        145
STLB USEFUL LOAD PREFETCHES:        216 PREFETCH ISSUED TO LOWER LEVEL:          0  ACCURACY: inf
STLB TIMELY PREFETCHES:        216 LATE PREFETCHES: 32 DROPPED PREFETCHES: 145974
STLB PREFETCHES SAME FILL-ORIGIN LEVEL: 0 DIFFERENT FILL-ORIGIN LEVEL: 0
STLB AVERAGE MISS LATENCY: 37.9225 cycles
STLB RQ	ACCESS:   21499506	FORWARD:          0	MERGED:    2545314	TO_CACHE:   18954192

STLB Hit, L1D data hit: 0
STLB Hit, L2C data hit: 0
STLB Hit, LLC data hit: 0
STLB Hit, LLC data miss: 0
STLB STLB hints to L2: 0
L1D TOTAL     ACCESS:   73413343  HIT:   72727503  MISS:     685840  HIT %:    99.0658  MISS %:   0.934217   MPKI: 3.4292
L1D LOAD      ACCESS:   30669922  HIT:   30248794  MISS:     421128  HIT %:    98.6269  MISS %:     1.3731   MPKI: 2.10564
L1D RFO       ACCESS:   23409767  HIT:   23265813  MISS:     143954  HIT %:    99.3851  MISS %:   0.614931   MPKI: 0.71977
L1D PREFETCH  ACCESS:   19333654  HIT:   19212896  MISS:     120758  HIT %:    99.3754  MISS %:     0.6246   MPKI: 0.60379
AGUS PREFETCH L1 MISS: 0
L1D PREFETCH  REQUESTED:   44427408  ISSUED:   44423903  USEFUL:       8331  USELESS:     112407
L1D USEFUL LOAD PREFETCHES:       8331 PREFETCH ISSUED TO LOWER LEVEL:     133647  ACCURACY: 6.23359
L1D TIMELY PREFETCHES:       8331 LATE PREFETCHES: 12886 DROPPED PREFETCHES: 147849
L1D PREFETCHES SAME FILL-ORIGIN LEVEL: 133647 DIFFERENT FILL-ORIGIN LEVEL: 0
L1D AVERAGE MISS LATENCY: 3.07705e+06 cycles
L1D RQ	ACCESS:   49531594	FORWARD:          0	MERGED:   18608383	TO_CACHE:   30810227
L1D WQ	ACCESS:   24205930	FORWARD:     168519	MERGED:     255729	TO_CACHE:   23950201
L1D PQ	ACCESS:   24842001	FORWARD:          0	MERGED:    5204564	TO_CACHE:   19581902

L1D UNIQUE REGIONS ACCESSED: 0
L1D REGIONS CONFLICTS: 0
L1D Cross Page Prefetch Requests: 19590986
L1D Same Page Prefetch Requests: 8746723
L1D ROI Sum of L1D PQ occupancy: 267746200
L1D PREFETCHES PUSHED FROM L2C: 0
L1I TOTAL     ACCESS:   38059159  HIT:   37401695  MISS:     657464  HIT %:    98.2725  MISS %:    1.72748   MPKI: 3.28732
L1I LOAD      ACCESS:   38059159  HIT:   37401695  MISS:     657464  HIT %:    98.2725  MISS %:    1.72748   MPKI: 3.28732
L1I PREFETCH  REQUESTED:          0  ISSUED:          0  USEFUL:          0  USELESS:          0
L1I USEFUL LOAD PREFETCHES:          0 PREFETCH ISSUED TO LOWER LEVEL:          0  ACCURACY: -nan
L1I TIMELY PREFETCHES:          0 LATE PREFETCHES: 0 DROPPED PREFETCHES: 0
L1I PREFETCHES SAME FILL-ORIGIN LEVEL: 0 DIFFERENT FILL-ORIGIN LEVEL: 0
L1I AVERAGE MISS LATENCY: 16.7372 cycles
L1I RQ	ACCESS:   60428755	FORWARD:          0	MERGED:   22170855	TO_CACHE:   38257900

BTB TOTAL     ACCESS:   29558552  HIT:   27898491  MISS:    1660061  HIT %:    94.3838  MISS %:    5.61618   MPKI: 8.3003
BTB BRANCH_DIRECT_JUMP	ACCESS:    2284609  HIT:    2283159  MISS:       1450
BTB BRANCH_INDIRECT	ACCESS:   12524838  HIT:   11977687  MISS:     547151
BTB BRANCH_CONDITIONAL	ACCESS:    7193896  HIT:    7191833  MISS:       2063
BTB BRANCH_DIRECT_CALL	ACCESS:    3327862  HIT:    3324183  MISS:       3679
BTB BRANCH_INDIRECT_CALL	ACCESS:     449728  HIT:     256600  MISS:     193128
BTB BRANCH_RETURN	ACCESS:    3777619  HIT:    2865029  MISS:     912590
BTB BRANCH_OTHER ACCESS:          0  HIT:          0  MISS:          0

L2C TOTAL     ACCESS:    1859611  HIT:    1312378  MISS:     547233  HIT %:    70.5727  MISS %:    29.4273   MPKI: 2.73616
L2C LOAD      ACCESS:    1065638  HIT:     709636  MISS:     356002  HIT %:    66.5926  MISS %:    33.4074   MPKI: 1.78001
L2C DATA LOAD MPKI: 1.57222
L2C INSTRUCTION LOAD MPKI: 0.207785
L2C RFO       ACCESS:     143949  HIT:      10923  MISS:     133026  HIT %:     7.5881  MISS %:    92.4119   MPKI: 0.66513
L2C PREFETCH  ACCESS:     133645  HIT:     110948  MISS:      22697  HIT %:    83.0169  MISS %:    16.9831   MPKI: 0.113485
AGUS PREFETCH L1 MISS: 0
L2C DATA PREFETCH MPKI: 0.113485
L2C INSTRUCTION PREFETCH MPKI: 0
L2C WRITEBACK ACCESS:     192127  HIT:     185945  MISS:       6182  HIT %:    96.7823  MISS %:    3.21766   MPKI: 0.03091
L2C LOAD TRANSLATION ACCESS:     124457  HIT:      96919  MISS:      27538  HIT %:    77.8735  MISS %:    22.1265   MPKI: 0.13769
L2C TRANSLATION FROM L1D PREFETCHER ACCESS:     199795  HIT:     198007  MISS:       1788  HIT %:    99.1051  MISS %:   0.894917   MPKI: 0.00894
L2C PREFETCH  REQUESTED:          0  ISSUED:          0  USEFUL:       2487  USELESS:      22141
L2C USEFUL LOAD PREFETCHES:       2487 PREFETCH ISSUED TO LOWER LEVEL:      22697  ACCURACY: 10.9574
L2C TIMELY PREFETCHES:       2487 LATE PREFETCHES: 0 DROPPED PREFETCHES: 0
L2C PREFETCHES SAME FILL-ORIGIN LEVEL: 0 DIFFERENT FILL-ORIGIN LEVEL: 0
L2C AVERAGE MISS LATENCY: 115.78 cycles
L2C RQ	ACCESS:    1533909	FORWARD:          0	MERGED:          0	TO_CACHE:    1533839
L2C WQ	ACCESS:     192127	FORWARD:         72	MERGED:          0	TO_CACHE:     192127
L2C PQ	ACCESS:     133647	FORWARD:          0	MERGED:          0	TO_CACHE:     133645

L2C Instructions Evicting Data 36399
L2C Translations Evicting Data 25326
L2C Data Evicting Data 409116
L2C Instructions Evicting Instructions 2797
L2C Translations Evicting Instructions 2684
L2C Data Evicting Instructions 36149
L2C Instructions Evicting Translations 2361
L2C Translations Evicting Translations 1316
L2C Data Evicting Translations 24903
L2C Dense regions hint from L2: 0
PSCL5 TOTAL     ACCESS:     232850  HIT:     232850  MISS:          0  HIT %:        100  MISS %:          0   MPKI: 0
PSCL5 LOAD TRANSLATION ACCESS:      86988  HIT:      86988  MISS:          0  HIT %:        100  MISS %:          0   MPKI: 0
PSCL5 TRANSLATION FROM L1D PREFETCHER ACCESS:     145862  HIT:     145862  MISS:          0  HIT %:        100  MISS %:          0   MPKI: 0
PSCL5 PREFETCH  REQUESTED:          0  ISSUED:          0  USEFUL:          0  USELESS:          0
PSCL5 USEFUL LOAD PREFETCHES:          0 PREFETCH ISSUED TO LOWER LEVEL:          0  ACCURACY: -nan
PSCL5 TIMELY PREFETCHES:          0 LATE PREFETCHES: 0 DROPPED PREFETCHES: 0
PSCL5 PREFETCHES SAME FILL-ORIGIN LEVEL: 0 DIFFERENT FILL-ORIGIN LEVEL: 0

PSCL4 TOTAL     ACCESS:     216928  HIT:     216785  MISS:        143  HIT %:    99.9341  MISS %:  0.0659205   MPKI: 0.000715
PSCL4 LOAD TRANSLATION ACCESS:      85833  HIT:      85690  MISS:        143  HIT %:    99.8334  MISS %:   0.166603   MPKI: 0.000715
PSCL4 TRANSLATION FROM L1D PREFETCHER ACCESS:     131095  HIT:     131095  MISS:          0  HIT %:        100  MISS %:          0   MPKI: 0
PSCL4 PREFETCH  REQUESTED:          0  ISSUED:          0  USEFUL:          0  USELESS:          0
PSCL4 USEFUL LOAD PREFETCHES:          0 PREFETCH ISSUED TO LOWER LEVEL:          0  ACCURACY: -nan
PSCL4 TIMELY PREFETCHES:          0 LATE PREFETCHES: 0 DROPPED PREFETCHES: 0
PSCL4 PREFETCHES SAME FILL-ORIGIN LEVEL: 0 DIFFERENT FILL-ORIGIN LEVEL: 0

PSCL3 TOTAL     ACCESS:     143561  HIT:     143162  MISS:        399  HIT %:    99.7221  MISS %:   0.277931   MPKI: 0.001995
PSCL3 LOAD TRANSLATION ACCESS:      86640  HIT:      86241  MISS:        399  HIT %:    99.5395  MISS %:   0.460526   MPKI: 0.001995
PSCL3 TRANSLATION FROM L1D PREFETCHER ACCESS:      56921  HIT:      56921  MISS:          0  HIT %:        100  MISS %:          0   MPKI: 0
PSCL3 PREFETCH  REQUESTED:          0  ISSUED:          0  USEFUL:          0  USELESS:          0
PSCL3 USEFUL LOAD PREFETCHES:          0 PREFETCH ISSUED TO LOWER LEVEL:          0  ACCURACY: -nan
PSCL3 TIMELY PREFETCHES:          0 LATE PREFETCHES: 0 DROPPED PREFETCHES: 0
PSCL3 PREFETCHES SAME FILL-ORIGIN LEVEL: 0 DIFFERENT FILL-ORIGIN LEVEL: 0

PSCL2 TOTAL     ACCESS:      95171  HIT:      58130  MISS:      37041  HIT %:    61.0795  MISS %:    38.9205   MPKI: 0.185205
PSCL2 LOAD TRANSLATION ACCESS:      87100  HIT:      50059  MISS:      37041  HIT %:     57.473  MISS %:     42.527   MPKI: 0.185205
PSCL2 TRANSLATION FROM L1D PREFETCHER ACCESS:       8071  HIT:       8071  MISS:          0  HIT %:        100  MISS %:          0   MPKI: 0
PSCL2 PREFETCH  REQUESTED:          0  ISSUED:          0  USEFUL:          0  USELESS:          0
PSCL2 USEFUL LOAD PREFETCHES:          0 PREFETCH ISSUED TO LOWER LEVEL:          0  ACCURACY: -nan
PSCL2 TIMELY PREFETCHES:          0 LATE PREFETCHES: 0 DROPPED PREFETCHES: 0
PSCL2 PREFETCHES SAME FILL-ORIGIN LEVEL: 0 DIFFERENT FILL-ORIGIN LEVEL: 0

LLC TOTAL     ACCESS:     711870  HIT:     408560  MISS:     303310  HIT %:    57.3925  MISS %:    42.6075   MPKI: 1.51655
LLC LOAD      ACCESS:     356002  HIT:     129470  MISS:     226532  HIT %:    36.3678  MISS %:    63.6322   MPKI: 1.13266
LLC RFO       ACCESS:     133026  HIT:      76503  MISS:      56523  HIT %:    57.5098  MISS %:    42.4902   MPKI: 0.282615
LLC PREFETCH  ACCESS:      22697  HIT:       7179  MISS:      15518  HIT %:    31.6297  MISS %:    68.3703   MPKI: 0.07759
AGUS PREFETCH L1 MISS: 0
LLC WRITEBACK ACCESS:     170819  HIT:     168712  MISS:       2107  HIT %:    98.7665  MISS %:    1.23347   MPKI: 0.010535
LLC LOAD TRANSLATION ACCESS:      27538  HIT:      25290  MISS:       2248  HIT %:    91.8367  MISS %:    8.16327   MPKI: 0.01124
LLC TRANSLATION FROM L1D PREFETCHER ACCESS:       1788  HIT:       1406  MISS:        382  HIT %:    78.6353  MISS %:    21.3647   MPKI: 0.00191
LLC PREFETCH  REQUESTED:          0  ISSUED:          0  USEFUL:        767  USELESS:      16054
LLC USEFUL LOAD PREFETCHES:        767 PREFETCH ISSUED TO LOWER LEVEL:      15518  ACCURACY: 4.94265
LLC TIMELY PREFETCHES:        767 LATE PREFETCHES: 0 DROPPED PREFETCHES: 0
LLC PREFETCHES SAME FILL-ORIGIN LEVEL: 0 DIFFERENT FILL-ORIGIN LEVEL: 0
LLC AVERAGE MISS LATENCY: 155.373 cycles
LLC RQ	ACCESS:     518354	FORWARD:          0	MERGED:          0	TO_CACHE:     518354
LLC WQ	ACCESS:     170819	FORWARD:          0	MERGED:          0	TO_CACHE:     170819
LLC PQ	ACCESS:      22697	FORWARD:          0	MERGED:          0	TO_CACHE:      22697

LLC Dense regions hint to LLC: 0

RAW hits: 2383801
Loads Generated: 51915376
Loads sent to L1D: 49531594
Stores Generated: 24205900
Stores sent to L1D: 24205930
Major fault: 0 Minor fault: 6265
Allocated PAGES: 6265
Completed 

DRAM Statistics
 CHANNEL 0
 RQ ROW_BUFFER_HIT:      68740  ROW_BUFFER_MISS:     232426
 DBUS_CONGESTED:        342
 WQ ROW_BUFFER_HIT:      13717  ROW_BUFFER_MISS:      56314  FULL:          0

 AVG_CONGESTED_CYCLE: 5
 All warmup complete: 2
Channel 0 Bank busy for read cycles: 0
Channel 0 Bank busy for write cycles: 0
Channel 0
Rank 0
0banks busy for read cycles: 244051271
0banks busy for write cycles: 35322
1banks busy for read cycles: 23088919
1banks busy for write cycles: 6217982
2banks busy for read cycles: 1716444
2banks busy for write cycles: 863857
3banks busy for read cycles: 636808
3banks busy for write cycles: 215022
4banks busy for read cycles: 468390
4banks busy for write cycles: 144712
5banks busy for read cycles: 354017
5banks busy for write cycles: 137524
6banks busy for read cycles: 321081
6banks busy for write cycles: 142833
7banks busy for read cycles: 284959
7banks busy for write cycles: 165642
8banks busy for read cycles: 288707
8banks busy for write cycles: 283712

CPU 0 Branch Prediction Accuracy: 99.7822% MPKI: 0.397295 Average ROB Occupancy at Mispredict: 20.2092
Branch types
NOT_BRANCH: 163510874 81.7554%
BRANCH_DIRECT_JUMP: 2284609 1.1423%
BRANCH_INDIRECT: 12524838 6.26242%
BRANCH_CONDITIONAL: 14124222 7.06211%
BRANCH_DIRECT_CALL: 3327862 1.66393%
BRANCH_INDIRECT_CALL: 449728 0.224864%
BRANCH_RETURN: 3777619 1.88881%
BRANCH_OTHER: 0 0%

DRAM PAGES: 1048576
Allocated PAGES: 6265
