
*** ChampSim Multicore Out-of-Order Simulator ***

Warmup Instructions: 50000000
Simulation Instructions: 200000000
Number of CPUs: 1
LLC sets: 2048
LLC ways: 16
Off-chip DRAM Size: 4096 MB Channels: 1 Width: 64-bit Data Rate: 6400 MT/s
CPU 0 runs traces/spec2k17/srv_31.champsimtrace.xz
.xz
BTB has LRU replacement policy
ITLB has LRU replacement policy
DTLB has LRU replacement policy
STLB has LRU replacement policy
L1I has LRU replacement policy
L1D has LRU replacement policy
Initialize SRRIP state for L2C
Initialize DRRIP state for LLC
Heartbeat CPU 0 instructions: 10000000 cycles: 2807922 heartbeat IPC: 3.56135 cumulative IPC: 3.56135 (Simulation time: 0 hr 0 min 53 sec) 
Heartbeat CPU 0 instructions: 20000002 cycles: 5614300 heartbeat IPC: 3.56331 cumulative IPC: 3.56233 (Simulation time: 0 hr 1 min 31 sec) 
Heartbeat CPU 0 instructions: 30000002 cycles: 8422267 heartbeat IPC: 3.5613 cumulative IPC: 3.56199 (Simulation time: 0 hr 2 min 8 sec) 
*** Reached end of trace for Core: 0 Repeating trace: traces/spec2k17/srv_31.champsimtrace.xz
Heartbeat CPU 0 instructions: 40000000 cycles: 11227978 heartbeat IPC: 3.56416 cumulative IPC: 3.56253 (Simulation time: 0 hr 2 min 48 sec) 
Heartbeat CPU 0 instructions: 50000003 cycles: 14034113 heartbeat IPC: 3.56362 cumulative IPC: 3.56275 (Simulation time: 0 hr 3 min 27 sec) 

Warmup complete CPU 0 instructions: 50000003 cycles: 14034113 (Simulation time: 0 hr 3 min 27 sec) 

Heartbeat CPU 0 instructions: 60000001 cycles: 28053891 heartbeat IPC: 0.713278 cumulative IPC: 0.713278 (Simulation time: 0 hr 4 min 5 sec) 
*** Reached end of trace for Core: 0 Repeating trace: traces/spec2k17/srv_31.champsimtrace.xz
Heartbeat CPU 0 instructions: 70000000 cycles: 42058466 heartbeat IPC: 0.714052 cumulative IPC: 0.713665 (Simulation time: 0 hr 4 min 54 sec) 
Heartbeat CPU 0 instructions: 80000000 cycles: 55836244 heartbeat IPC: 0.725806 cumulative IPC: 0.717667 (Simulation time: 0 hr 5 min 50 sec) 
Heartbeat CPU 0 instructions: 90000001 cycles: 69746104 heartbeat IPC: 0.718915 cumulative IPC: 0.717978 (Simulation time: 0 hr 6 min 42 sec) 
*** Reached end of trace for Core: 0 Repeating trace: traces/spec2k17/srv_31.champsimtrace.xz
Heartbeat CPU 0 instructions: 100000000 cycles: 83577535 heartbeat IPC: 0.722991 cumulative IPC: 0.718975 (Simulation time: 0 hr 7 min 39 sec) 
Heartbeat CPU 0 instructions: 110000000 cycles: 97304030 heartbeat IPC: 0.728518 cumulative IPC: 0.720548 (Simulation time: 0 hr 8 min 36 sec) 
Heartbeat CPU 0 instructions: 120000001 cycles: 111409137 heartbeat IPC: 0.708963 cumulative IPC: 0.71887 (Simulation time: 0 hr 9 min 30 sec) 
*** Reached end of trace for Core: 0 Repeating trace: traces/spec2k17/srv_31.champsimtrace.xz
Heartbeat CPU 0 instructions: 130000000 cycles: 125243400 heartbeat IPC: 0.722843 cumulative IPC: 0.719364 (Simulation time: 0 hr 10 min 18 sec) 
Heartbeat CPU 0 instructions: 140000000 cycles: 138946926 heartbeat IPC: 0.729739 cumulative IPC: 0.720502 (Simulation time: 0 hr 11 min 10 sec) 
Heartbeat CPU 0 instructions: 150000002 cycles: 153047345 heartbeat IPC: 0.709199 cumulative IPC: 0.719356 (Simulation time: 0 hr 12 min 7 sec) 
*** Reached end of trace for Core: 0 Repeating trace: traces/spec2k17/srv_31.champsimtrace.xz
Heartbeat CPU 0 instructions: 160000002 cycles: 166908886 heartbeat IPC: 0.721421 cumulative IPC: 0.719543 (Simulation time: 0 hr 13 min 6 sec) 
Heartbeat CPU 0 instructions: 170000000 cycles: 180576756 heartbeat IPC: 0.731643 cumulative IPC: 0.720536 (Simulation time: 0 hr 14 min 1 sec) 
Heartbeat CPU 0 instructions: 180000002 cycles: 194464001 heartbeat IPC: 0.720085 cumulative IPC: 0.720501 (Simulation time: 0 hr 15 min 0 sec) 
Heartbeat CPU 0 instructions: 190000001 cycles: 208293631 heartbeat IPC: 0.723085 cumulative IPC: 0.720685 (Simulation time: 0 hr 15 min 59 sec) 
*** Reached end of trace for Core: 0 Repeating trace: traces/spec2k17/srv_31.champsimtrace.xz
Heartbeat CPU 0 instructions: 200000003 cycles: 222207224 heartbeat IPC: 0.718722 cumulative IPC: 0.720554 (Simulation time: 0 hr 16 min 57 sec) 
Heartbeat CPU 0 instructions: 210000003 cycles: 236034277 heartbeat IPC: 0.72322 cumulative IPC: 0.72072 (Simulation time: 0 hr 17 min 48 sec) 
Heartbeat CPU 0 instructions: 220000000 cycles: 249876226 heartbeat IPC: 0.722441 cumulative IPC: 0.720821 (Simulation time: 0 hr 18 min 34 sec) 
*** Reached end of trace for Core: 0 Repeating trace: traces/spec2k17/srv_31.champsimtrace.xz
Heartbeat CPU 0 instructions: 230000003 cycles: 263819568 heartbeat IPC: 0.717188 cumulative IPC: 0.720618 (Simulation time: 0 hr 19 min 29 sec) 
Heartbeat CPU 0 instructions: 240000001 cycles: 277580883 heartbeat IPC: 0.726675 cumulative IPC: 0.720935 (Simulation time: 0 hr 20 min 23 sec) 
Heartbeat CPU 0 instructions: 250000003 cycles: 291455613 heartbeat IPC: 0.720735 cumulative IPC: 0.720925 (Simulation time: 0 hr 21 min 14 sec) 
Finished CPU 0 instructions: 200000000 cycles: 277421500 cumulative IPC: 0.720925 (Simulation time: 0 hr 21 min 14 sec) 

ChampSim completed all CPUs

Region of Interest Statistics

CPU 0 cumulative IPC: 0.720925 instructions: 200000000 cycles: 277421500
ITLB TOTAL     ACCESS:   32447568  HIT:   32340864  MISS:     106704  HIT %:    99.6711  MISS %:   0.328851   MPKI: 0.53352
ITLB LOAD TRANSLATION ACCESS:   32447568  HIT:   32340864  MISS:     106704  HIT %:    99.6711  MISS %:   0.328851   MPKI: 0.53352
ITLB PREFETCH  REQUESTED:          0  ISSUED:          0  USEFUL:          0  USELESS:          0
ITLB USEFUL LOAD PREFETCHES:          0 PREFETCH ISSUED TO LOWER LEVEL:          0  ACCURACY: -nan
ITLB TIMELY PREFETCHES:          0 LATE PREFETCHES: 0 DROPPED PREFETCHES: 0
ITLB PREFETCHES SAME FILL-ORIGIN LEVEL: 0 DIFFERENT FILL-ORIGIN LEVEL: 0
ITLB AVERAGE MISS LATENCY: 10.6095 cycles
ITLB RQ	ACCESS:   38246169	FORWARD:          0	MERGED:    5763771	TO_CACHE:   32482398

DTLB TOTAL     ACCESS:   40785602  HIT:   38976888  MISS:    1808714  HIT %:    95.5653  MISS %:    4.43469   MPKI: 9.04357
DTLB LOAD TRANSLATION ACCESS:   40785602  HIT:   38976888  MISS:    1808714  HIT %:    95.5653  MISS %:    4.43469   MPKI: 9.04357
DTLB PREFETCH  REQUESTED:          0  ISSUED:          0  USEFUL:          0  USELESS:          0
DTLB USEFUL LOAD PREFETCHES:          0 PREFETCH ISSUED TO LOWER LEVEL:          0  ACCURACY: -nan
DTLB TIMELY PREFETCHES:          0 LATE PREFETCHES: 0 DROPPED PREFETCHES: 0
DTLB PREFETCHES SAME FILL-ORIGIN LEVEL: 0 DIFFERENT FILL-ORIGIN LEVEL: 0
DTLB AVERAGE MISS LATENCY: 9.64891 cycles
DTLB RQ	ACCESS:   54749258	FORWARD:          0	MERGED:   13788884	TO_CACHE:   40960374

STLB TOTAL     ACCESS:   18679713  HIT:   18593269  MISS:      86444  HIT %:    99.5372  MISS %:   0.462769   MPKI: 0.43222
STLB LOAD TRANSLATION ACCESS:    1915418  HIT:    1829252  MISS:      86166  HIT %:    95.5015  MISS %:    4.49855   MPKI: 0.43083
STLB TRANSLATION FROM L1D PREFETCHER ACCESS:   16764295  HIT:   16764017  MISS:        278  HIT %:    99.9983  MISS %: 0.00165829   MPKI: 0.00139
STLB PREFETCH  REQUESTED:          0  ISSUED:          0  USEFUL:        220  USELESS:         58
STLB USEFUL LOAD PREFETCHES:        220 PREFETCH ISSUED TO LOWER LEVEL:          0  ACCURACY: inf
STLB TIMELY PREFETCHES:        220 LATE PREFETCHES: 21 DROPPED PREFETCHES: 153406
STLB PREFETCHES SAME FILL-ORIGIN LEVEL: 0 DIFFERENT FILL-ORIGIN LEVEL: 0
STLB AVERAGE MISS LATENCY: 35.6966 cycles
STLB RQ	ACCESS:   21373836	FORWARD:          0	MERGED:    2540542	TO_CACHE:   18833294

STLB Hit, L1D data hit: 0
STLB Hit, L2C data hit: 0
STLB Hit, LLC data hit: 0
STLB Hit, LLC data miss: 0
STLB STLB hints to L2: 0
L1D TOTAL     ACCESS:   73369893  HIT:   72753565  MISS:     616328  HIT %:      99.16  MISS %:   0.840028   MPKI: 3.08164
L1D LOAD      ACCESS:   30709501  HIT:   30321707  MISS:     387794  HIT %:    98.7372  MISS %:    1.26278   MPKI: 1.93897
L1D RFO       ACCESS:   23438063  HIT:   23319067  MISS:     118996  HIT %:    99.4923  MISS %:   0.507704   MPKI: 0.59498
L1D PREFETCH  ACCESS:   19222329  HIT:   19112791  MISS:     109538  HIT %:    99.4302  MISS %:   0.569848   MPKI: 0.54769
AGUS PREFETCH L1 MISS: 0
L1D PREFETCH  REQUESTED:   44387016  ISSUED:   44384739  USEFUL:       6599  USELESS:     102911
L1D USEFUL LOAD PREFETCHES:       6599 PREFETCH ISSUED TO LOWER LEVEL:     121937  ACCURACY: 5.41181
L1D TIMELY PREFETCHES:       6599 LATE PREFETCHES: 12391 DROPPED PREFETCHES: 155328
L1D PREFETCHES SAME FILL-ORIGIN LEVEL: 121937 DIFFERENT FILL-ORIGIN LEVEL: 0
L1D AVERAGE MISS LATENCY: 3.30774e+06 cycles
L1D RQ	ACCESS:   49488672	FORWARD:          0	MERGED:   18536696	TO_CACHE:   30841473
L1D WQ	ACCESS:   24164282	FORWARD:     163629	MERGED:     256497	TO_CACHE:   23907785
L1D PQ	ACCESS:   24926321	FORWARD:          0	MERGED:    5414777	TO_CACHE:   19458418

L1D UNIQUE REGIONS ACCESSED: 0
L1D REGIONS CONFLICTS: 0
L1D Cross Page Prefetch Requests: 19490044
L1D Same Page Prefetch Requests: 8946293
L1D ROI Sum of L1D PQ occupancy: 266830796
L1D PREFETCHES PUSHED FROM L2C: 0
L1I TOTAL     ACCESS:   38053670  HIT:   37415299  MISS:     638371  HIT %:    98.3224  MISS %:    1.67755   MPKI: 3.19185
L1I LOAD      ACCESS:   38053670  HIT:   37415299  MISS:     638371  HIT %:    98.3224  MISS %:    1.67755   MPKI: 3.19185
L1I PREFETCH  REQUESTED:          0  ISSUED:          0  USEFUL:          0  USELESS:          0
L1I USEFUL LOAD PREFETCHES:          0 PREFETCH ISSUED TO LOWER LEVEL:          0  ACCURACY: -nan
L1I TIMELY PREFETCHES:          0 LATE PREFETCHES: 0 DROPPED PREFETCHES: 0
L1I PREFETCHES SAME FILL-ORIGIN LEVEL: 0 DIFFERENT FILL-ORIGIN LEVEL: 0
L1I AVERAGE MISS LATENCY: 16.8197 cycles
L1I RQ	ACCESS:   60443132	FORWARD:          0	MERGED:   22196963	TO_CACHE:   38246169

BTB TOTAL     ACCESS:   29625893  HIT:   27968825  MISS:    1657068  HIT %:    94.4067  MISS %:    5.59331   MPKI: 8.28534
BTB BRANCH_DIRECT_JUMP	ACCESS:    2289443  HIT:    2287950  MISS:       1493
BTB BRANCH_INDIRECT	ACCESS:   12552908  HIT:   12006835  MISS:     546073
BTB BRANCH_CONDITIONAL	ACCESS:    7216617  HIT:    7214548  MISS:       2069
BTB BRANCH_DIRECT_CALL	ACCESS:    3333261  HIT:    3329718  MISS:       3543
BTB BRANCH_INDIRECT_CALL	ACCESS:     450198  HIT:     257229  MISS:     192969
BTB BRANCH_RETURN	ACCESS:    3783466  HIT:    2872545  MISS:     910921
BTB BRANCH_OTHER ACCESS:          0  HIT:          0  MISS:          0

L2C TOTAL     ACCESS:    1775780  HIT:    1277943  MISS:     497837  HIT %:    71.9652  MISS %:    28.0348   MPKI: 2.48918
L2C LOAD      ACCESS:    1013716  HIT:     678911  MISS:     334805  HIT %:    66.9725  MISS %:    33.0275   MPKI: 1.67403
L2C DATA LOAD MPKI: 1.46413
L2C INSTRUCTION LOAD MPKI: 0.209895
L2C RFO       ACCESS:     118982  HIT:       8199  MISS:     110783  HIT %:    6.89096  MISS %:     93.109   MPKI: 0.553915
L2C PREFETCH  ACCESS:     121936  HIT:     102000  MISS:      19936  HIT %:    83.6504  MISS %:    16.3496   MPKI: 0.09968
AGUS PREFETCH L1 MISS: 0
L2C DATA PREFETCH MPKI: 0.09968
L2C INSTRUCTION PREFETCH MPKI: 0
L2C WRITEBACK ACCESS:     164789  HIT:     158729  MISS:       6060  HIT %:    96.3226  MISS %:    3.67743   MPKI: 0.0303
L2C LOAD TRANSLATION ACCESS:     122819  HIT:      98287  MISS:      24532  HIT %:    80.0259  MISS %:    19.9741   MPKI: 0.12266
L2C TRANSLATION FROM L1D PREFETCHER ACCESS:     233538  HIT:     231817  MISS:       1721  HIT %:    99.2631  MISS %:   0.736925   MPKI: 0.008605
L2C PREFETCH  REQUESTED:          0  ISSUED:          0  USEFUL:       2273  USELESS:      19498
L2C USEFUL LOAD PREFETCHES:       2273 PREFETCH ISSUED TO LOWER LEVEL:      19936  ACCURACY: 11.4015
L2C TIMELY PREFETCHES:       2273 LATE PREFETCHES: 0 DROPPED PREFETCHES: 0
L2C PREFETCHES SAME FILL-ORIGIN LEVEL: 0 DIFFERENT FILL-ORIGIN LEVEL: 0
L2C AVERAGE MISS LATENCY: 110.99 cycles
L2C RQ	ACCESS:    1489119	FORWARD:          0	MERGED:          0	TO_CACHE:    1489055
L2C WQ	ACCESS:     164789	FORWARD:         65	MERGED:          0	TO_CACHE:     164789
L2C PQ	ACCESS:     121937	FORWARD:          0	MERGED:          0	TO_CACHE:     121936

L2C Instructions Evicting Data 37211
L2C Translations Evicting Data 22487
L2C Data Evicting Data 364521
L2C Instructions Evicting Instructions 2793
L2C Translations Evicting Instructions 2294
L2C Data Evicting Instructions 36680
L2C Instructions Evicting Translations 1975
L2C Translations Evicting Translations 1472
L2C Data Evicting Translations 22344
L2C Dense regions hint from L2: 0
PSCL5 TOTAL     ACCESS:     239345  HIT:     239345  MISS:          0  HIT %:        100  MISS %:          0   MPKI: 0
PSCL5 LOAD TRANSLATION ACCESS:      86145  HIT:      86145  MISS:          0  HIT %:        100  MISS %:          0   MPKI: 0
PSCL5 TRANSLATION FROM L1D PREFETCHER ACCESS:     153200  HIT:     153200  MISS:          0  HIT %:        100  MISS %:          0   MPKI: 0
PSCL5 PREFETCH  REQUESTED:          0  ISSUED:          0  USEFUL:          0  USELESS:          0
PSCL5 USEFUL LOAD PREFETCHES:          0 PREFETCH ISSUED TO LOWER LEVEL:          0  ACCURACY: -nan
PSCL5 TIMELY PREFETCHES:          0 LATE PREFETCHES: 0 DROPPED PREFETCHES: 0
PSCL5 PREFETCHES SAME FILL-ORIGIN LEVEL: 0 DIFFERENT FILL-ORIGIN LEVEL: 0

PSCL4 TOTAL     ACCESS:     212049  HIT:     211897  MISS:        152  HIT %:    99.9283  MISS %:  0.0716815   MPKI: 0.00076
PSCL4 LOAD TRANSLATION ACCESS:      84200  HIT:      84048  MISS:        152  HIT %:    99.8195  MISS %:   0.180523   MPKI: 0.00076
PSCL4 TRANSLATION FROM L1D PREFETCHER ACCESS:     127849  HIT:     127849  MISS:          0  HIT %:        100  MISS %:          0   MPKI: 0
PSCL4 PREFETCH  REQUESTED:          0  ISSUED:          0  USEFUL:          0  USELESS:          0
PSCL4 USEFUL LOAD PREFETCHES:          0 PREFETCH ISSUED TO LOWER LEVEL:          0  ACCURACY: -nan
PSCL4 TIMELY PREFETCHES:          0 LATE PREFETCHES: 0 DROPPED PREFETCHES: 0
PSCL4 PREFETCHES SAME FILL-ORIGIN LEVEL: 0 DIFFERENT FILL-ORIGIN LEVEL: 0

PSCL3 TOTAL     ACCESS:     141200  HIT:     140631  MISS:        569  HIT %:     99.597  MISS %:   0.402975   MPKI: 0.002845
PSCL3 LOAD TRANSLATION ACCESS:      85846  HIT:      85277  MISS:        569  HIT %:    99.3372  MISS %:   0.662815   MPKI: 0.002845
PSCL3 TRANSLATION FROM L1D PREFETCHER ACCESS:      55354  HIT:      55354  MISS:          0  HIT %:        100  MISS %:          0   MPKI: 0
PSCL3 PREFETCH  REQUESTED:          0  ISSUED:          0  USEFUL:          0  USELESS:          0
PSCL3 USEFUL LOAD PREFETCHES:          0 PREFETCH ISSUED TO LOWER LEVEL:          0  ACCURACY: -nan
PSCL3 TIMELY PREFETCHES:          0 LATE PREFETCHES: 0 DROPPED PREFETCHES: 0
PSCL3 PREFETCHES SAME FILL-ORIGIN LEVEL: 0 DIFFERENT FILL-ORIGIN LEVEL: 0

PSCL2 TOTAL     ACCESS:      91713  HIT:      55680  MISS:      36033  HIT %:    60.7111  MISS %:    39.2889   MPKI: 0.180165
PSCL2 LOAD TRANSLATION ACCESS:      86219  HIT:      50186  MISS:      36033  HIT %:    58.2076  MISS %:    41.7924   MPKI: 0.180165
PSCL2 TRANSLATION FROM L1D PREFETCHER ACCESS:       5494  HIT:       5494  MISS:          0  HIT %:        100  MISS %:          0   MPKI: 0
PSCL2 PREFETCH  REQUESTED:          0  ISSUED:          0  USEFUL:          0  USELESS:          0
PSCL2 USEFUL LOAD PREFETCHES:          0 PREFETCH ISSUED TO LOWER LEVEL:          0  ACCURACY: -nan
PSCL2 TIMELY PREFETCHES:          0 LATE PREFETCHES: 0 DROPPED PREFETCHES: 0
PSCL2 PREFETCHES SAME FILL-ORIGIN LEVEL: 0 DIFFERENT FILL-ORIGIN LEVEL: 0

LLC TOTAL     ACCESS:     639585  HIT:     380476  MISS:     259109  HIT %:    59.4879  MISS %:    40.5121   MPKI: 1.29554
LLC LOAD      ACCESS:     334801  HIT:     131966  MISS:     202835  HIT %:    39.4163  MISS %:    60.5837   MPKI: 1.01418
LLC RFO       ACCESS:     110783  HIT:      70480  MISS:      40303  HIT %:    63.6199  MISS %:    36.3801   MPKI: 0.201515
LLC PREFETCH  ACCESS:      19936  HIT:       7085  MISS:      12851  HIT %:    35.5387  MISS %:    64.4613   MPKI: 0.064255
AGUS PREFETCH L1 MISS: 0
LLC WRITEBACK ACCESS:     147812  HIT:     146615  MISS:       1197  HIT %:    99.1902  MISS %:   0.809812   MPKI: 0.005985
LLC LOAD TRANSLATION ACCESS:      24532  HIT:      22929  MISS:       1603  HIT %:    93.4657  MISS %:    6.53432   MPKI: 0.008015
LLC TRANSLATION FROM L1D PREFETCHER ACCESS:       1721  HIT:       1401  MISS:        320  HIT %:    81.4062  MISS %:    18.5938   MPKI: 0.0016
LLC PREFETCH  REQUESTED:          0  ISSUED:          0  USEFUL:        685  USELESS:      13228
LLC USEFUL LOAD PREFETCHES:        685 PREFETCH ISSUED TO LOWER LEVEL:      12851  ACCURACY: 5.33032
LLC TIMELY PREFETCHES:        685 LATE PREFETCHES: 0 DROPPED PREFETCHES: 0
LLC PREFETCHES SAME FILL-ORIGIN LEVEL: 0 DIFFERENT FILL-ORIGIN LEVEL: 0
LLC AVERAGE MISS LATENCY: 156.308 cycles
LLC RQ	ACCESS:     471841	FORWARD:          0	MERGED:          0	TO_CACHE:     471837
LLC WQ	ACCESS:     147812	FORWARD:          4	MERGED:          0	TO_CACHE:     147812
LLC PQ	ACCESS:      19936	FORWARD:          0	MERGED:          0	TO_CACHE:      19936

LLC Dense regions hint to LLC: 0

RAW hits: 2382700
Loads Generated: 51871374
Loads sent to L1D: 49488672
Stores Generated: 24164278
Stores sent to L1D: 24164282
Major fault: 0 Minor fault: 6162
Allocated PAGES: 6162
Completed 

DRAM Statistics
 CHANNEL 0
 RQ ROW_BUFFER_HIT:      54737  ROW_BUFFER_MISS:     203143
 DBUS_CONGESTED:        233
 WQ ROW_BUFFER_HIT:       9876  ROW_BUFFER_MISS:      42246  FULL:          0

 AVG_CONGESTED_CYCLE: 5
 All warmup complete: 2
Channel 0 Bank busy for read cycles: 0
Channel 0 Bank busy for write cycles: 0
Channel 0
Rank 0
0banks busy for read cycles: 245861047
0banks busy for write cycles: 28822
1banks busy for read cycles: 22008660
1banks busy for write cycles: 5009384
2banks busy for read cycles: 1450320
2banks busy for write cycles: 644028
3banks busy for read cycles: 467839
3banks busy for write cycles: 174145
4banks busy for read cycles: 333720
4banks busy for write cycles: 114673
5banks busy for read cycles: 252983
5banks busy for write cycles: 92827
6banks busy for read cycles: 225535
6banks busy for write cycles: 90102
7banks busy for read cycles: 206939
7banks busy for write cycles: 109258
8banks busy for read cycles: 187490
8banks busy for write cycles: 163729

CPU 0 Branch Prediction Accuracy: 99.7859% MPKI: 0.39104 Average ROB Occupancy at Mispredict: 19.7171
Branch types
NOT_BRANCH: 163463153 81.7316%
BRANCH_DIRECT_JUMP: 2289443 1.14472%
BRANCH_INDIRECT: 12552908 6.27645%
BRANCH_CONDITIONAL: 14127333 7.06367%
BRANCH_DIRECT_CALL: 3333261 1.66663%
BRANCH_INDIRECT_CALL: 450198 0.225099%
BRANCH_RETURN: 3783466 1.89173%
BRANCH_OTHER: 0 0%

DRAM PAGES: 1048576
Allocated PAGES: 6162
