
*** ChampSim Multicore Out-of-Order Simulator ***

Warmup Instructions: 50000000
Simulation Instructions: 200000000
Number of CPUs: 1
LLC sets: 2048
LLC ways: 16
Off-chip DRAM Size: 4096 MB Channels: 1 Width: 64-bit Data Rate: 6400 MT/s
CPU 0 runs traces/spec2k17/srv_3.champsimtrace.xz
.xz
BTB has LRU replacement policy
ITLB has LRU replacement policy
DTLB has LRU replacement policy
STLB has LRU replacement policy
L1I has LRU replacement policy
L1D has LRU replacement policy
Initialize SRRIP state for L2C
Initialize DRRIP state for LLC
Heartbeat CPU 0 instructions: 10000003 cycles: 2770083 heartbeat IPC: 3.61 cumulative IPC: 3.61 (Simulation time: 0 hr 0 min 27 sec) 
Heartbeat CPU 0 instructions: 20000001 cycles: 5535573 heartbeat IPC: 3.61599 cumulative IPC: 3.613 (Simulation time: 0 hr 0 min 53 sec) 
Heartbeat CPU 0 instructions: 30000000 cycles: 8303658 heartbeat IPC: 3.61261 cumulative IPC: 3.61287 (Simulation time: 0 hr 1 min 19 sec) 
*** Reached end of trace for Core: 0 Repeating trace: traces/spec2k17/srv_3.champsimtrace.xz
Heartbeat CPU 0 instructions: 40000001 cycles: 11065408 heartbeat IPC: 3.62089 cumulative IPC: 3.61487 (Simulation time: 0 hr 1 min 48 sec) 
Heartbeat CPU 0 instructions: 50000002 cycles: 13833531 heartbeat IPC: 3.61256 cumulative IPC: 3.61441 (Simulation time: 0 hr 2 min 14 sec) 

Warmup complete CPU 0 instructions: 50000002 cycles: 13833531 (Simulation time: 0 hr 2 min 14 sec) 

Heartbeat CPU 0 instructions: 60000001 cycles: 35686845 heartbeat IPC: 0.457596 cumulative IPC: 0.457596 (Simulation time: 0 hr 3 min 3 sec) 
*** Reached end of trace for Core: 0 Repeating trace: traces/spec2k17/srv_3.champsimtrace.xz
Heartbeat CPU 0 instructions: 70000000 cycles: 57277002 heartbeat IPC: 0.463174 cumulative IPC: 0.460368 (Simulation time: 0 hr 3 min 53 sec) 
Heartbeat CPU 0 instructions: 80000000 cycles: 79620519 heartbeat IPC: 0.447557 cumulative IPC: 0.456017 (Simulation time: 0 hr 4 min 35 sec) 
Heartbeat CPU 0 instructions: 90000003 cycles: 101271263 heartbeat IPC: 0.461878 cumulative IPC: 0.457468 (Simulation time: 0 hr 5 min 13 sec) 
*** Reached end of trace for Core: 0 Repeating trace: traces/spec2k17/srv_3.champsimtrace.xz
Heartbeat CPU 0 instructions: 100000003 cycles: 122981434 heartbeat IPC: 0.460614 cumulative IPC: 0.458094 (Simulation time: 0 hr 5 min 59 sec) 
Heartbeat CPU 0 instructions: 110000000 cycles: 144923746 heartbeat IPC: 0.45574 cumulative IPC: 0.4577 (Simulation time: 0 hr 6 min 36 sec) 
Heartbeat CPU 0 instructions: 120000001 cycles: 166799593 heartbeat IPC: 0.457125 cumulative IPC: 0.457618 (Simulation time: 0 hr 7 min 13 sec) 
*** Reached end of trace for Core: 0 Repeating trace: traces/spec2k17/srv_3.champsimtrace.xz
Heartbeat CPU 0 instructions: 130000002 cycles: 188454885 heartbeat IPC: 0.461781 cumulative IPC: 0.458134 (Simulation time: 0 hr 7 min 49 sec) 
Heartbeat CPU 0 instructions: 140000001 cycles: 210505943 heartbeat IPC: 0.453493 cumulative IPC: 0.457614 (Simulation time: 0 hr 8 min 25 sec) 
Heartbeat CPU 0 instructions: 150000000 cycles: 232197229 heartbeat IPC: 0.461015 cumulative IPC: 0.457952 (Simulation time: 0 hr 9 min 0 sec) 
*** Reached end of trace for Core: 0 Repeating trace: traces/spec2k17/srv_3.champsimtrace.xz
Heartbeat CPU 0 instructions: 160000002 cycles: 253799786 heartbeat IPC: 0.462908 cumulative IPC: 0.458398 (Simulation time: 0 hr 9 min 36 sec) 
Heartbeat CPU 0 instructions: 170000003 cycles: 275643091 heartbeat IPC: 0.457806 cumulative IPC: 0.458348 (Simulation time: 0 hr 10 min 12 sec) 
Heartbeat CPU 0 instructions: 180000002 cycles: 297382734 heartbeat IPC: 0.459989 cumulative IPC: 0.458474 (Simulation time: 0 hr 10 min 47 sec) 
*** Reached end of trace for Core: 0 Repeating trace: traces/spec2k17/srv_3.champsimtrace.xz
Heartbeat CPU 0 instructions: 190000002 cycles: 319230597 heartbeat IPC: 0.457711 cumulative IPC: 0.45842 (Simulation time: 0 hr 11 min 23 sec) 
Heartbeat CPU 0 instructions: 200000001 cycles: 340768535 heartbeat IPC: 0.464297 cumulative IPC: 0.458807 (Simulation time: 0 hr 11 min 58 sec) 
Heartbeat CPU 0 instructions: 210000001 cycles: 362479933 heartbeat IPC: 0.460588 cumulative IPC: 0.458918 (Simulation time: 0 hr 12 min 34 sec) 
*** Reached end of trace for Core: 0 Repeating trace: traces/spec2k17/srv_3.champsimtrace.xz
Heartbeat CPU 0 instructions: 220000000 cycles: 384355226 heartbeat IPC: 0.457137 cumulative IPC: 0.458813 (Simulation time: 0 hr 13 min 9 sec) 
Heartbeat CPU 0 instructions: 230000001 cycles: 405897232 heartbeat IPC: 0.464209 cumulative IPC: 0.459109 (Simulation time: 0 hr 13 min 44 sec) 
Heartbeat CPU 0 instructions: 240000000 cycles: 427825210 heartbeat IPC: 0.456038 cumulative IPC: 0.458946 (Simulation time: 0 hr 14 min 20 sec) 
*** Reached end of trace for Core: 0 Repeating trace: traces/spec2k17/srv_3.champsimtrace.xz
Heartbeat CPU 0 instructions: 250000003 cycles: 449495817 heartbeat IPC: 0.461455 cumulative IPC: 0.459071 (Simulation time: 0 hr 14 min 56 sec) 
Finished CPU 0 instructions: 200000001 cycles: 435662286 cumulative IPC: 0.459071 (Simulation time: 0 hr 14 min 56 sec) 

ChampSim completed all CPUs

Region of Interest Statistics

CPU 0 cumulative IPC: 0.459071 instructions: 200000001 cycles: 435662286
ITLB TOTAL     ACCESS:   31554417  HIT:   30784271  MISS:     770146  HIT %:    97.5593  MISS %:    2.44069   MPKI: 3.85073
ITLB LOAD TRANSLATION ACCESS:   31554417  HIT:   30784271  MISS:     770146  HIT %:    97.5593  MISS %:    2.44069   MPKI: 3.85073
ITLB PREFETCH  REQUESTED:          0  ISSUED:          0  USEFUL:          0  USELESS:          0
ITLB USEFUL LOAD PREFETCHES:          0 PREFETCH ISSUED TO LOWER LEVEL:          0  ACCURACY: -nan
ITLB TIMELY PREFETCHES:          0 LATE PREFETCHES: 0 DROPPED PREFETCHES: 0
ITLB PREFETCHES SAME FILL-ORIGIN LEVEL: 0 DIFFERENT FILL-ORIGIN LEVEL: 0
ITLB AVERAGE MISS LATENCY: 13.9007 cycles
ITLB RQ	ACCESS:   38422302	FORWARD:          0	MERGED:    6673612	TO_CACHE:   31748690

DTLB TOTAL     ACCESS:   37081439  HIT:   34699810  MISS:    2381629  HIT %:    93.5773  MISS %:     6.4227   MPKI: 11.9081
DTLB LOAD TRANSLATION ACCESS:   37081439  HIT:   34699810  MISS:    2381629  HIT %:    93.5773  MISS %:     6.4227   MPKI: 11.9081
DTLB PREFETCH  REQUESTED:          0  ISSUED:          0  USEFUL:          0  USELESS:          0
DTLB USEFUL LOAD PREFETCHES:          0 PREFETCH ISSUED TO LOWER LEVEL:          0  ACCURACY: -nan
DTLB TIMELY PREFETCHES:          0 LATE PREFETCHES: 0 DROPPED PREFETCHES: 0
DTLB PREFETCHES SAME FILL-ORIGIN LEVEL: 0 DIFFERENT FILL-ORIGIN LEVEL: 0
DTLB AVERAGE MISS LATENCY: 13.3795 cycles
DTLB RQ	ACCESS:   47559658	FORWARD:          0	MERGED:   10352195	TO_CACHE:   37207463

STLB TOTAL     ACCESS:   11015601  HIT:   10679451  MISS:     336150  HIT %:    96.9484  MISS %:    3.05158   MPKI: 1.68075
STLB LOAD TRANSLATION ACCESS:    3151775  HIT:    2824707  MISS:     327068  HIT %:    89.6227  MISS %:    10.3773   MPKI: 1.63534
STLB TRANSLATION FROM L1D PREFETCHER ACCESS:    7863826  HIT:    7854744  MISS:       9082  HIT %:    99.8845  MISS %:   0.115491   MPKI: 0.04541
STLB PREFETCH  REQUESTED:          0  ISSUED:          0  USEFUL:       7493  USELESS:       1586
STLB USEFUL LOAD PREFETCHES:       7493 PREFETCH ISSUED TO LOWER LEVEL:          0  ACCURACY: inf
STLB TIMELY PREFETCHES:       7493 LATE PREFETCHES: 1984 DROPPED PREFETCHES: 240482
STLB PREFETCHES SAME FILL-ORIGIN LEVEL: 0 DIFFERENT FILL-ORIGIN LEVEL: 0
STLB AVERAGE MISS LATENCY: 45.9436 cycles
STLB RQ	ACCESS:   12702684	FORWARD:          0	MERGED:    1442822	TO_CACHE:   11259862

STLB Hit, L1D data hit: 0
STLB Hit, L2C data hit: 0
STLB Hit, LLC data hit: 0
STLB Hit, LLC data miss: 0
STLB STLB hints to L2: 0
L1D TOTAL     ACCESS:   56165037  HIT:   53649329  MISS:    2515708  HIT %:    95.5209  MISS %:    4.47914   MPKI: 12.5785
L1D LOAD      ACCESS:   27489747  HIT:   25504887  MISS:    1984860  HIT %:    92.7796  MISS %:    7.22036   MPKI: 9.9243
L1D RFO       ACCESS:   19551736  HIT:   19225065  MISS:     326671  HIT %:    98.3292  MISS %:     1.6708   MPKI: 1.63335
L1D PREFETCH  ACCESS:    9123554  HIT:    8919377  MISS:     204177  HIT %:    97.7621  MISS %:    2.23791   MPKI: 1.02088
AGUS PREFETCH L1 MISS: 0
L1D PREFETCH  REQUESTED:   21613359  ISSUED:   21612632  USEFUL:     131746  USELESS:      72412
L1D USEFUL LOAD PREFETCHES:     131746 PREFETCH ISSUED TO LOWER LEVEL:     268996  ACCURACY: 48.9769
L1D TIMELY PREFETCHES:     131746 LATE PREFETCHES: 64500 DROPPED PREFETCHES: 253319
L1D PREFETCHES SAME FILL-ORIGIN LEVEL: 268996 DIFFERENT FILL-ORIGIN LEVEL: 0
L1D AVERAGE MISS LATENCY: 7.75694e+06 cycles
L1D RQ	ACCESS:   42151354	FORWARD:          0	MERGED:   14317018	TO_CACHE:   27614285
L1D WQ	ACCESS:   20247469	FORWARD:     257200	MERGED:     302096	TO_CACHE:   19945373
L1D PQ	ACCESS:   12061723	FORWARD:          0	MERGED:    2473665	TO_CACHE:    9550909

L1D UNIQUE REGIONS ACCESSED: 0
L1D REGIONS CONFLICTS: 0
L1D Cross Page Prefetch Requests: 8518625
L1D Same Page Prefetch Requests: 5417712
L1D ROI Sum of L1D PQ occupancy: 142086362
L1D PREFETCHES PUSHED FROM L2C: 0
L1I TOTAL     ACCESS:   36625877  HIT:   31521315  MISS:    5104562  HIT %:     86.063  MISS %:     13.937   MPKI: 25.5228
L1I LOAD      ACCESS:   36625877  HIT:   31521315  MISS:    5104562  HIT %:     86.063  MISS %:     13.937   MPKI: 25.5228
L1I PREFETCH  REQUESTED:          0  ISSUED:          0  USEFUL:          0  USELESS:          0
L1I USEFUL LOAD PREFETCHES:          0 PREFETCH ISSUED TO LOWER LEVEL:          0  ACCURACY: -nan
L1I TIMELY PREFETCHES:          0 LATE PREFETCHES: 0 DROPPED PREFETCHES: 0
L1I PREFETCHES SAME FILL-ORIGIN LEVEL: 0 DIFFERENT FILL-ORIGIN LEVEL: 0
L1I AVERAGE MISS LATENCY: 25.0744 cycles
L1I RQ	ACCESS:   57284295	FORWARD:          0	MERGED:   18861993	TO_CACHE:   38422302

BTB TOTAL     ACCESS:   22232128  HIT:   17878921  MISS:    4353207  HIT %:    80.4193  MISS %:    19.5807   MPKI: 21.766
BTB BRANCH_DIRECT_JUMP	ACCESS:    1728930  HIT:    1486091  MISS:     242839
BTB BRANCH_INDIRECT	ACCESS:    9451764  HIT:    7328366  MISS:    2123398
BTB BRANCH_CONDITIONAL	ACCESS:    4727495  HIT:    4325130  MISS:     402365
BTB BRANCH_DIRECT_CALL	ACCESS:    2474151  HIT:    1996074  MISS:     478077
BTB BRANCH_INDIRECT_CALL	ACCESS:     687640  HIT:     649686  MISS:      37954
BTB BRANCH_RETURN	ACCESS:    3162148  HIT:    2093574  MISS:    1068574
BTB BRANCH_OTHER ACCESS:          0  HIT:          0  MISS:          0

L2C TOTAL     ACCESS:    9368620  HIT:    6238911  MISS:    3129709  HIT %:    66.5937  MISS %:    33.4063   MPKI: 15.6485
L2C LOAD      ACCESS:    7024798  HIT:    4380014  MISS:    2644784  HIT %:    62.3507  MISS %:    37.6493   MPKI: 13.2239
L2C DATA LOAD MPKI: 4.23039
L2C INSTRUCTION LOAD MPKI: 8.99352
L2C RFO       ACCESS:     326352  HIT:     184700  MISS:     141652  HIT %:    56.5953  MISS %:    43.4047   MPKI: 0.70826
L2C PREFETCH  ACCESS:     268906  HIT:     186110  MISS:      82796  HIT %:    69.2101  MISS %:    30.7899   MPKI: 0.41398
AGUS PREFETCH L1 MISS: 0
L2C DATA PREFETCH MPKI: 0.41398
L2C INSTRUCTION PREFETCH MPKI: 0
L2C WRITEBACK ACCESS:    1009388  HIT:     954726  MISS:      54662  HIT %:    94.5846  MISS %:    5.41536   MPKI: 0.27331
L2C LOAD TRANSLATION ACCESS:     426508  HIT:     252931  MISS:     173577  HIT %:    59.3028  MISS %:    40.6972   MPKI: 0.867885
L2C TRANSLATION FROM L1D PREFETCHER ACCESS:     312668  HIT:     280430  MISS:      32238  HIT %:    89.6894  MISS %:    10.3106   MPKI: 0.16119
L2C PREFETCH  REQUESTED:          0  ISSUED:          0  USEFUL:      25621  USELESS:      89290
L2C USEFUL LOAD PREFETCHES:      25621 PREFETCH ISSUED TO LOWER LEVEL:      82796  ACCURACY: 30.9447
L2C TIMELY PREFETCHES:      25621 LATE PREFETCHES: 0 DROPPED PREFETCHES: 0
L2C PREFETCHES SAME FILL-ORIGIN LEVEL: 0 DIFFERENT FILL-ORIGIN LEVEL: 0
L2C AVERAGE MISS LATENCY: 44.0673 cycles
L2C RQ	ACCESS:    8090454	FORWARD:          0	MERGED:          0	TO_CACHE:    8090330
L2C WQ	ACCESS:    1009388	FORWARD:        214	MERGED:          0	TO_CACHE:    1009388
L2C PQ	ACCESS:     268996	FORWARD:          0	MERGED:          0	TO_CACHE:     268906

L2C Instructions Evicting Data 634254
L2C Translations Evicting Data 72199
L2C Data Evicting Data 398975
L2C Instructions Evicting Instructions 1047386
L2C Translations Evicting Instructions 119364
L2C Data Evicting Instructions 599997
L2C Instructions Evicting Translations 117065
L2C Translations Evicting Translations 14252
L2C Data Evicting Translations 71555
L2C Dense regions hint from L2: 0
PSCL5 TOTAL     ACCESS:     564952  HIT:     564952  MISS:          0  HIT %:        100  MISS %:          0   MPKI: 0
PSCL5 LOAD TRANSLATION ACCESS:     325084  HIT:     325084  MISS:          0  HIT %:        100  MISS %:          0   MPKI: 0
PSCL5 TRANSLATION FROM L1D PREFETCHER ACCESS:     239868  HIT:     239868  MISS:          0  HIT %:        100  MISS %:          0   MPKI: 0
PSCL5 PREFETCH  REQUESTED:          0  ISSUED:          0  USEFUL:          0  USELESS:          0
PSCL5 USEFUL LOAD PREFETCHES:          0 PREFETCH ISSUED TO LOWER LEVEL:          0  ACCURACY: -nan
PSCL5 TIMELY PREFETCHES:          0 LATE PREFETCHES: 0 DROPPED PREFETCHES: 0
PSCL5 PREFETCHES SAME FILL-ORIGIN LEVEL: 0 DIFFERENT FILL-ORIGIN LEVEL: 0

PSCL4 TOTAL     ACCESS:     482589  HIT:     482399  MISS:        190  HIT %:    99.9606  MISS %:   0.039371   MPKI: 0.00095
PSCL4 LOAD TRANSLATION ACCESS:     273621  HIT:     273431  MISS:        190  HIT %:    99.9306  MISS %:  0.0694391   MPKI: 0.00095
PSCL4 TRANSLATION FROM L1D PREFETCHER ACCESS:     208968  HIT:     208968  MISS:          0  HIT %:        100  MISS %:          0   MPKI: 0
PSCL4 PREFETCH  REQUESTED:          0  ISSUED:          0  USEFUL:          0  USELESS:          0
PSCL4 USEFUL LOAD PREFETCHES:          0 PREFETCH ISSUED TO LOWER LEVEL:          0  ACCURACY: -nan
PSCL4 TIMELY PREFETCHES:          0 LATE PREFETCHES: 0 DROPPED PREFETCHES: 0
PSCL4 PREFETCHES SAME FILL-ORIGIN LEVEL: 0 DIFFERENT FILL-ORIGIN LEVEL: 0

PSCL3 TOTAL     ACCESS:     531204  HIT:     530634  MISS:        570  HIT %:    99.8927  MISS %:   0.107303   MPKI: 0.00285
PSCL3 LOAD TRANSLATION ACCESS:     324670  HIT:     324100  MISS:        570  HIT %:    99.8244  MISS %:   0.175563   MPKI: 0.00285
PSCL3 TRANSLATION FROM L1D PREFETCHER ACCESS:     206534  HIT:     206534  MISS:          0  HIT %:        100  MISS %:          0   MPKI: 0
PSCL3 PREFETCH  REQUESTED:          0  ISSUED:          0  USEFUL:          0  USELESS:          0
PSCL3 USEFUL LOAD PREFETCHES:          0 PREFETCH ISSUED TO LOWER LEVEL:          0  ACCURACY: -nan
PSCL3 TIMELY PREFETCHES:          0 LATE PREFETCHES: 0 DROPPED PREFETCHES: 0
PSCL3 PREFETCHES SAME FILL-ORIGIN LEVEL: 0 DIFFERENT FILL-ORIGIN LEVEL: 0

PSCL2 TOTAL     ACCESS:     353889  HIT:     248100  MISS:     105789  HIT %:    70.1067  MISS %:    29.8933   MPKI: 0.528945
PSCL2 LOAD TRANSLATION ACCESS:     330205  HIT:     224416  MISS:     105789  HIT %:    67.9626  MISS %:    32.0374   MPKI: 0.528945
PSCL2 TRANSLATION FROM L1D PREFETCHER ACCESS:      23684  HIT:      23684  MISS:          0  HIT %:        100  MISS %:          0   MPKI: 0
PSCL2 PREFETCH  REQUESTED:          0  ISSUED:          0  USEFUL:          0  USELESS:          0
PSCL2 USEFUL LOAD PREFETCHES:          0 PREFETCH ISSUED TO LOWER LEVEL:          0  ACCURACY: -nan
PSCL2 TIMELY PREFETCHES:          0 LATE PREFETCHES: 0 DROPPED PREFETCHES: 0
PSCL2 PREFETCHES SAME FILL-ORIGIN LEVEL: 0 DIFFERENT FILL-ORIGIN LEVEL: 0

LLC TOTAL     ACCESS:    3494918  HIT:    3192748  MISS:     302170  HIT %:     91.354  MISS %:    8.64598   MPKI: 1.51085
LLC LOAD      ACCESS:    2644777  HIT:    2411194  MISS:     233583  HIT %:    91.1681  MISS %:    8.83186   MPKI: 1.16791
LLC RFO       ACCESS:     141652  HIT:      96963  MISS:      44689  HIT %:    68.4516  MISS %:    31.5484   MPKI: 0.223445
LLC PREFETCH  ACCESS:      82796  HIT:      73911  MISS:       8885  HIT %:    89.2688  MISS %:    10.7312   MPKI: 0.044425
AGUS PREFETCH L1 MISS: 0
LLC WRITEBACK ACCESS:     419878  HIT:     417864  MISS:       2014  HIT %:    99.5203  MISS %:   0.479663   MPKI: 0.01007
LLC LOAD TRANSLATION ACCESS:     173577  HIT:     162191  MISS:      11386  HIT %:    93.4404  MISS %:    6.55962   MPKI: 0.05693
LLC TRANSLATION FROM L1D PREFETCHER ACCESS:      32238  HIT:      30625  MISS:       1613  HIT %:    94.9966  MISS %:    5.00341   MPKI: 0.008065
LLC PREFETCH  REQUESTED:          0  ISSUED:          0  USEFUL:       1684  USELESS:       8544
LLC USEFUL LOAD PREFETCHES:       1684 PREFETCH ISSUED TO LOWER LEVEL:       8885  ACCURACY: 18.9533
LLC TIMELY PREFETCHES:       1684 LATE PREFETCHES: 0 DROPPED PREFETCHES: 0
LLC PREFETCHES SAME FILL-ORIGIN LEVEL: 0 DIFFERENT FILL-ORIGIN LEVEL: 0
LLC AVERAGE MISS LATENCY: 151.124 cycles
LLC RQ	ACCESS:    2992254	FORWARD:          0	MERGED:          0	TO_CACHE:    2992246
LLC WQ	ACCESS:     419878	FORWARD:          8	MERGED:          0	TO_CACHE:     419878
LLC PQ	ACCESS:      82796	FORWARD:          0	MERGED:          0	TO_CACHE:      82796

LLC Dense regions hint to LLC: 0

RAW hits: 2784849
Loads Generated: 44936206
Loads sent to L1D: 42151354
Stores Generated: 20247459
Stores sent to L1D: 20247469
Major fault: 0 Minor fault: 6094
Allocated PAGES: 6094
Completed 

DRAM Statistics
 CHANNEL 0
 RQ ROW_BUFFER_HIT:      58696  ROW_BUFFER_MISS:     241459
 DBUS_CONGESTED:        184
 WQ ROW_BUFFER_HIT:      32104  ROW_BUFFER_MISS:     179659  FULL:          0

 AVG_CONGESTED_CYCLE: 4
 All warmup complete: 2
Channel 0 Bank busy for read cycles: 0
Channel 0 Bank busy for write cycles: 0
Channel 0
Rank 0
0banks busy for read cycles: 378800052
0banks busy for write cycles: 118429
1banks busy for read cycles: 27906178
1banks busy for write cycles: 16707353
2banks busy for read cycles: 3691391
2banks busy for write cycles: 4025219
3banks busy for read cycles: 487432
3banks busy for write cycles: 1417558
4banks busy for read cycles: 200861
4banks busy for write cycles: 745964
5banks busy for read cycles: 90075
5banks busy for write cycles: 453500
6banks busy for read cycles: 74327
6banks busy for write cycles: 313739
7banks busy for read cycles: 51796
7banks busy for write cycles: 268591
8banks busy for read cycles: 42626
8banks busy for write cycles: 267196

CPU 0 Branch Prediction Accuracy: 99.8437% MPKI: 0.280085 Average ROB Occupancy at Mispredict: 44.6823
Branch types
NOT_BRANCH: 164163881 82.0819%
BRANCH_DIRECT_JUMP: 1728930 0.864465%
BRANCH_INDIRECT: 9451764 4.72588%
BRANCH_CONDITIONAL: 18331230 9.16561%
BRANCH_DIRECT_CALL: 2474151 1.23708%
BRANCH_INDIRECT_CALL: 687640 0.34382%
BRANCH_RETURN: 3162148 1.58107%
BRANCH_OTHER: 0 0%

DRAM PAGES: 1048576
Allocated PAGES: 6094
