
*** ChampSim Multicore Out-of-Order Simulator ***

Warmup Instructions: 50000000
Simulation Instructions: 200000000
Number of CPUs: 1
LLC sets: 2048
LLC ways: 16
Off-chip DRAM Size: 4096 MB Channels: 1 Width: 64-bit Data Rate: 6400 MT/s
CPU 0 runs traces/spec2k17/srv_38.champsimtrace.xz
.xz
BTB has LRU replacement policy
ITLB has LRU replacement policy
DTLB has LRU replacement policy
STLB has LRU replacement policy
L1I has LRU replacement policy
L1D has LRU replacement policy
Initialize SRRIP state for L2C
Initialize DRRIP state for LLC
Heartbeat CPU 0 instructions: 10000003 cycles: 2945197 heartbeat IPC: 3.39536 cumulative IPC: 3.39536 (Simulation time: 0 hr 0 min 31 sec) 
Heartbeat CPU 0 instructions: 20000002 cycles: 5883333 heartbeat IPC: 3.40352 cumulative IPC: 3.39943 (Simulation time: 0 hr 1 min 3 sec) 
Heartbeat CPU 0 instructions: 30000000 cycles: 8828612 heartbeat IPC: 3.39526 cumulative IPC: 3.39804 (Simulation time: 0 hr 1 min 34 sec) 
*** Reached end of trace for Core: 0 Repeating trace: traces/spec2k17/srv_38.champsimtrace.xz
Heartbeat CPU 0 instructions: 40000003 cycles: 11775098 heartbeat IPC: 3.39387 cumulative IPC: 3.397 (Simulation time: 0 hr 2 min 5 sec) 
Heartbeat CPU 0 instructions: 50000002 cycles: 14713707 heartbeat IPC: 3.40297 cumulative IPC: 3.39819 (Simulation time: 0 hr 2 min 34 sec) 

Warmup complete CPU 0 instructions: 50000002 cycles: 14713707 (Simulation time: 0 hr 2 min 34 sec) 

Heartbeat CPU 0 instructions: 60000000 cycles: 34600560 heartbeat IPC: 0.502845 cumulative IPC: 0.502845 (Simulation time: 0 hr 3 min 35 sec) 
*** Reached end of trace for Core: 0 Repeating trace: traces/spec2k17/srv_38.champsimtrace.xz
Heartbeat CPU 0 instructions: 70000001 cycles: 54354805 heartbeat IPC: 0.50622 cumulative IPC: 0.504527 (Simulation time: 0 hr 4 min 46 sec) 
Heartbeat CPU 0 instructions: 80000000 cycles: 74032810 heartbeat IPC: 0.508182 cumulative IPC: 0.505739 (Simulation time: 0 hr 5 min 55 sec) 
Heartbeat CPU 0 instructions: 90000003 cycles: 93674531 heartbeat IPC: 0.509121 cumulative IPC: 0.50658 (Simulation time: 0 hr 6 min 44 sec) 
*** Reached end of trace for Core: 0 Repeating trace: traces/spec2k17/srv_38.champsimtrace.xz
Heartbeat CPU 0 instructions: 100000002 cycles: 113409652 heartbeat IPC: 0.506711 cumulative IPC: 0.506606 (Simulation time: 0 hr 7 min 33 sec) 
Heartbeat CPU 0 instructions: 110000000 cycles: 133079517 heartbeat IPC: 0.508392 cumulative IPC: 0.506903 (Simulation time: 0 hr 8 min 20 sec) 
Heartbeat CPU 0 instructions: 120000000 cycles: 152685480 heartbeat IPC: 0.510049 cumulative IPC: 0.50735 (Simulation time: 0 hr 9 min 6 sec) 
*** Reached end of trace for Core: 0 Repeating trace: traces/spec2k17/srv_38.champsimtrace.xz
Heartbeat CPU 0 instructions: 130000003 cycles: 172446855 heartbeat IPC: 0.506038 cumulative IPC: 0.507186 (Simulation time: 0 hr 9 min 53 sec) 
Heartbeat CPU 0 instructions: 140000001 cycles: 192024180 heartbeat IPC: 0.510795 cumulative IPC: 0.507584 (Simulation time: 0 hr 10 min 40 sec) 
Heartbeat CPU 0 instructions: 150000000 cycles: 211570627 heartbeat IPC: 0.511602 cumulative IPC: 0.507983 (Simulation time: 0 hr 11 min 26 sec) 
Heartbeat CPU 0 instructions: 160000002 cycles: 231261046 heartbeat IPC: 0.507861 cumulative IPC: 0.507972 (Simulation time: 0 hr 12 min 13 sec) 
*** Reached end of trace for Core: 0 Repeating trace: traces/spec2k17/srv_38.champsimtrace.xz
Heartbeat CPU 0 instructions: 170000000 cycles: 250948001 heartbeat IPC: 0.50795 cumulative IPC: 0.50797 (Simulation time: 0 hr 13 min 11 sec) 
Heartbeat CPU 0 instructions: 180000000 cycles: 270557673 heartbeat IPC: 0.509952 cumulative IPC: 0.508122 (Simulation time: 0 hr 14 min 25 sec) 
Heartbeat CPU 0 instructions: 190000000 cycles: 290178555 heartbeat IPC: 0.509661 cumulative IPC: 0.508232 (Simulation time: 0 hr 15 min 11 sec) 
*** Reached end of trace for Core: 0 Repeating trace: traces/spec2k17/srv_38.champsimtrace.xz
Heartbeat CPU 0 instructions: 200000000 cycles: 309849653 heartbeat IPC: 0.50836 cumulative IPC: 0.50824 (Simulation time: 0 hr 16 min 4 sec) 
Heartbeat CPU 0 instructions: 210000002 cycles: 329422472 heartbeat IPC: 0.510913 cumulative IPC: 0.508407 (Simulation time: 0 hr 16 min 50 sec) 
Heartbeat CPU 0 instructions: 220000000 cycles: 349001115 heartbeat IPC: 0.510761 cumulative IPC: 0.508544 (Simulation time: 0 hr 17 min 36 sec) 
*** Reached end of trace for Core: 0 Repeating trace: traces/spec2k17/srv_38.champsimtrace.xz
Heartbeat CPU 0 instructions: 230000001 cycles: 368636639 heartbeat IPC: 0.509281 cumulative IPC: 0.508585 (Simulation time: 0 hr 18 min 20 sec) 
Heartbeat CPU 0 instructions: 240000003 cycles: 388286896 heartbeat IPC: 0.508899 cumulative IPC: 0.508602 (Simulation time: 0 hr 19 min 2 sec) 
Heartbeat CPU 0 instructions: 250000002 cycles: 407862039 heartbeat IPC: 0.510852 cumulative IPC: 0.508714 (Simulation time: 0 hr 19 min 39 sec) 
Finished CPU 0 instructions: 200000000 cycles: 393148332 cumulative IPC: 0.508714 (Simulation time: 0 hr 19 min 39 sec) 

ChampSim completed all CPUs

Region of Interest Statistics

CPU 0 cumulative IPC: 0.508714 instructions: 200000000 cycles: 393148332
ITLB TOTAL     ACCESS:   33765568  HIT:   32241433  MISS:    1524135  HIT %:    95.4861  MISS %:    4.51387   MPKI: 7.62068
ITLB LOAD TRANSLATION ACCESS:   33765568  HIT:   32241433  MISS:    1524135  HIT %:    95.4861  MISS %:    4.51387   MPKI: 7.62068
ITLB PREFETCH  REQUESTED:          0  ISSUED:          0  USEFUL:          0  USELESS:          0
ITLB USEFUL LOAD PREFETCHES:          0 PREFETCH ISSUED TO LOWER LEVEL:          0  ACCURACY: -nan
ITLB TIMELY PREFETCHES:          0 LATE PREFETCHES: 0 DROPPED PREFETCHES: 0
ITLB PREFETCHES SAME FILL-ORIGIN LEVEL: 0 DIFFERENT FILL-ORIGIN LEVEL: 0
ITLB AVERAGE MISS LATENCY: 9.1913 cycles
ITLB RQ	ACCESS:   40623822	FORWARD:          0	MERGED:    6365811	TO_CACHE:   34258011

DTLB TOTAL     ACCESS:   39877696  HIT:   38387349  MISS:    1490347  HIT %:    96.2627  MISS %:    3.73729   MPKI: 7.45174
DTLB LOAD TRANSLATION ACCESS:   39877696  HIT:   38387349  MISS:    1490347  HIT %:    96.2627  MISS %:    3.73729   MPKI: 7.45174
DTLB PREFETCH  REQUESTED:          0  ISSUED:          0  USEFUL:          0  USELESS:          0
DTLB USEFUL LOAD PREFETCHES:          0 PREFETCH ISSUED TO LOWER LEVEL:          0  ACCURACY: -nan
DTLB TIMELY PREFETCHES:          0 LATE PREFETCHES: 0 DROPPED PREFETCHES: 0
DTLB PREFETCHES SAME FILL-ORIGIN LEVEL: 0 DIFFERENT FILL-ORIGIN LEVEL: 0
DTLB AVERAGE MISS LATENCY: 13.5668 cycles
DTLB RQ	ACCESS:   60932770	FORWARD:          0	MERGED:   20665162	TO_CACHE:   40267608

STLB TOTAL     ACCESS:    9487928  HIT:    9413350  MISS:      74578  HIT %:     99.214  MISS %:    0.78603   MPKI: 0.37289
STLB LOAD TRANSLATION ACCESS:    3014482  HIT:    2941123  MISS:      73359  HIT %:    97.5664  MISS %:    2.43355   MPKI: 0.366795
STLB TRANSLATION FROM L1D PREFETCHER ACCESS:    6473446  HIT:    6472227  MISS:       1219  HIT %:    99.9812  MISS %:  0.0188308   MPKI: 0.006095
STLB PREFETCH  REQUESTED:          0  ISSUED:          0  USEFUL:       1055  USELESS:        162
STLB USEFUL LOAD PREFETCHES:       1055 PREFETCH ISSUED TO LOWER LEVEL:          0  ACCURACY: inf
STLB TIMELY PREFETCHES:       1055 LATE PREFETCHES: 246 DROPPED PREFETCHES: 17595
STLB PREFETCHES SAME FILL-ORIGIN LEVEL: 0 DIFFERENT FILL-ORIGIN LEVEL: 0
STLB AVERAGE MISS LATENCY: 102.897 cycles
STLB RQ	ACCESS:   10582999	FORWARD:          0	MERGED:    1076824	TO_CACHE:    9506175

STLB Hit, L1D data hit: 0
STLB Hit, L2C data hit: 0
STLB Hit, LLC data hit: 0
STLB Hit, LLC data miss: 0
STLB STLB hints to L2: 0
L1D TOTAL     ACCESS:   55624078  HIT:   48700686  MISS:    6923392  HIT %:    87.5532  MISS %:    12.4468   MPKI: 34.617
L1D LOAD      ACCESS:   26580127  HIT:   23616613  MISS:    2963514  HIT %:    88.8506  MISS %:    11.1494   MPKI: 14.8176
L1D RFO       ACCESS:   22425037  HIT:   18720436  MISS:    3704601  HIT %:    83.4801  MISS %:    16.5199   MPKI: 18.523
L1D PREFETCH  ACCESS:    6618914  HIT:    6363637  MISS:     255277  HIT %:    96.1432  MISS %:    3.85678   MPKI: 1.27639
AGUS PREFETCH L1 MISS: 0
L1D PREFETCH  REQUESTED:   18728717  ISSUED:   18726975  USEFUL:     131376  USELESS:     123917
L1D USEFUL LOAD PREFETCHES:     131376 PREFETCH ISSUED TO LOWER LEVEL:     428070  ACCURACY: 30.6903
L1D TIMELY PREFETCHES:     131376 LATE PREFETCHES: 172611 DROPPED PREFETCHES: 18335
L1D PREFETCHES SAME FILL-ORIGIN LEVEL: 428070 DIFFERENT FILL-ORIGIN LEVEL: 0
L1D AVERAGE MISS LATENCY: 5.49863e+06 cycles
L1D RQ	ACCESS:   45116261	FORWARD:          0	MERGED:   17825755	TO_CACHE:   27011044
L1D WQ	ACCESS:   34120710	FORWARD:     315532	MERGED:     198984	TO_CACHE:   33921726
L1D PQ	ACCESS:   11158458	FORWARD:          0	MERGED:    3553871	TO_CACHE:    7568517

L1D UNIQUE REGIONS ACCESSED: 0
L1D REGIONS CONFLICTS: 0
L1D Cross Page Prefetch Requests: 4421342
L1D Same Page Prefetch Requests: 8473686
L1D ROI Sum of L1D PQ occupancy: 107797876
L1D PREFETCHES PUSHED FROM L2C: 0
L1I TOTAL     ACCESS:   37997991  HIT:   28996966  MISS:    9001025  HIT %:    76.3118  MISS %:    23.6882   MPKI: 45.0051
L1I LOAD      ACCESS:   37997991  HIT:   28996966  MISS:    9001025  HIT %:    76.3118  MISS %:    23.6882   MPKI: 45.0051
L1I PREFETCH  REQUESTED:          0  ISSUED:          0  USEFUL:          0  USELESS:          0
L1I USEFUL LOAD PREFETCHES:          0 PREFETCH ISSUED TO LOWER LEVEL:          0  ACCURACY: -nan
L1I TIMELY PREFETCHES:          0 LATE PREFETCHES: 0 DROPPED PREFETCHES: 0
L1I PREFETCHES SAME FILL-ORIGIN LEVEL: 0 DIFFERENT FILL-ORIGIN LEVEL: 0
L1I AVERAGE MISS LATENCY: 16.5644 cycles
L1I RQ	ACCESS:   58978767	FORWARD:          0	MERGED:   18354945	TO_CACHE:   40623822

BTB TOTAL     ACCESS:   25785291  HIT:   24238540  MISS:    1546751  HIT %:    94.0014  MISS %:    5.99858   MPKI: 7.73376
BTB BRANCH_DIRECT_JUMP	ACCESS:    1652264  HIT:    1642590  MISS:       9674
BTB BRANCH_INDIRECT	ACCESS:    9950804  HIT:    9430277  MISS:     520527
BTB BRANCH_CONDITIONAL	ACCESS:    7377327  HIT:    7363709  MISS:      13618
BTB BRANCH_DIRECT_CALL	ACCESS:    2809801  HIT:    2776203  MISS:      33598
BTB BRANCH_INDIRECT_CALL	ACCESS:     592726  HIT:     482250  MISS:     110476
BTB BRANCH_RETURN	ACCESS:    3402369  HIT:    2543511  MISS:     858858
BTB BRANCH_OTHER ACCESS:          0  HIT:          0  MISS:          0

L2C TOTAL     ACCESS:   20388933  HIT:   13736968  MISS:    6651965  HIT %:    67.3746  MISS %:    32.6254   MPKI: 33.2598
L2C LOAD      ACCESS:   11791866  HIT:    9150755  MISS:    2641111  HIT %:    77.6023  MISS %:    22.3977   MPKI: 13.2056
L2C DATA LOAD MPKI: 10.4343
L2C INSTRUCTION LOAD MPKI: 2.77122
L2C RFO       ACCESS:    3704415  HIT:     164599  MISS:    3539816  HIT %:    4.44332  MISS %:    95.5567   MPKI: 17.6991
L2C PREFETCH  ACCESS:     428039  HIT:     129818  MISS:     298221  HIT %:    30.3285  MISS %:    69.6715   MPKI: 1.4911
AGUS PREFETCH L1 MISS: 0
L2C DATA PREFETCH MPKI: 1.4911
L2C INSTRUCTION PREFETCH MPKI: 0
L2C WRITEBACK ACCESS:    4359252  HIT:    4230713  MISS:     128539  HIT %:    97.0514  MISS %:    2.94865   MPKI: 0.642695
L2C LOAD TRANSLATION ACCESS:      78237  HIT:      45588  MISS:      32649  HIT %:    58.2691  MISS %:    41.7309   MPKI: 0.163245
L2C TRANSLATION FROM L1D PREFETCHER ACCESS:      27124  HIT:      15495  MISS:      11629  HIT %:    57.1265  MISS %:    42.8735   MPKI: 0.058145
L2C PREFETCH  REQUESTED:          0  ISSUED:          0  USEFUL:      18327  USELESS:     291678
L2C USEFUL LOAD PREFETCHES:      18327 PREFETCH ISSUED TO LOWER LEVEL:     298221  ACCURACY: 6.14544
L2C TIMELY PREFETCHES:      18327 LATE PREFETCHES: 0 DROPPED PREFETCHES: 0
L2C PREFETCHES SAME FILL-ORIGIN LEVEL: 0 DIFFERENT FILL-ORIGIN LEVEL: 0
L2C AVERAGE MISS LATENCY: 158.173 cycles
L2C RQ	ACCESS:   15601715	FORWARD:          0	MERGED:          0	TO_CACHE:   15601649
L2C WQ	ACCESS:    4359253	FORWARD:         97	MERGED:          0	TO_CACHE:    4359253
L2C PQ	ACCESS:     428070	FORWARD:          0	MERGED:          0	TO_CACHE:     428039

L2C Instructions Evicting Data 514504
L2C Translations Evicting Data 40316
L2C Data Evicting Data 5381288
L2C Instructions Evicting Instructions 35801
L2C Translations Evicting Instructions 3564
L2C Data Evicting Instructions 504408
L2C Instructions Evicting Translations 3940
L2C Translations Evicting Translations 398
L2C Data Evicting Translations 39207
L2C Dense regions hint from L2: 0
PSCL5 TOTAL     ACCESS:      91905  HIT:      91905  MISS:          0  HIT %:        100  MISS %:          0   MPKI: 0
PSCL5 LOAD TRANSLATION ACCESS:      73113  HIT:      73113  MISS:          0  HIT %:        100  MISS %:          0   MPKI: 0
PSCL5 TRANSLATION FROM L1D PREFETCHER ACCESS:      18792  HIT:      18792  MISS:          0  HIT %:        100  MISS %:          0   MPKI: 0
PSCL5 PREFETCH  REQUESTED:          0  ISSUED:          0  USEFUL:          0  USELESS:          0
PSCL5 USEFUL LOAD PREFETCHES:          0 PREFETCH ISSUED TO LOWER LEVEL:          0  ACCURACY: -nan
PSCL5 TIMELY PREFETCHES:          0 LATE PREFETCHES: 0 DROPPED PREFETCHES: 0
PSCL5 PREFETCHES SAME FILL-ORIGIN LEVEL: 0 DIFFERENT FILL-ORIGIN LEVEL: 0

PSCL4 TOTAL     ACCESS:      88584  HIT:      88425  MISS:        159  HIT %:    99.8205  MISS %:   0.179491   MPKI: 0.000795
PSCL4 LOAD TRANSLATION ACCESS:      71261  HIT:      71102  MISS:        159  HIT %:    99.7769  MISS %:   0.223123   MPKI: 0.000795
PSCL4 TRANSLATION FROM L1D PREFETCHER ACCESS:      17323  HIT:      17323  MISS:          0  HIT %:        100  MISS %:          0   MPKI: 0
PSCL4 PREFETCH  REQUESTED:          0  ISSUED:          0  USEFUL:          0  USELESS:          0
PSCL4 USEFUL LOAD PREFETCHES:          0 PREFETCH ISSUED TO LOWER LEVEL:          0  ACCURACY: -nan
PSCL4 TIMELY PREFETCHES:          0 LATE PREFETCHES: 0 DROPPED PREFETCHES: 0
PSCL4 PREFETCHES SAME FILL-ORIGIN LEVEL: 0 DIFFERENT FILL-ORIGIN LEVEL: 0

PSCL3 TOTAL     ACCESS:      89559  HIT:      89400  MISS:        159  HIT %:    99.8225  MISS %:   0.177537   MPKI: 0.000795
PSCL3 LOAD TRANSLATION ACCESS:      72077  HIT:      71918  MISS:        159  HIT %:    99.7794  MISS %:   0.220597   MPKI: 0.000795
PSCL3 TRANSLATION FROM L1D PREFETCHER ACCESS:      17482  HIT:      17482  MISS:          0  HIT %:        100  MISS %:          0   MPKI: 0
PSCL3 PREFETCH  REQUESTED:          0  ISSUED:          0  USEFUL:          0  USELESS:          0
PSCL3 USEFUL LOAD PREFETCHES:          0 PREFETCH ISSUED TO LOWER LEVEL:          0  ACCURACY: -nan
PSCL3 TIMELY PREFETCHES:          0 LATE PREFETCHES: 0 DROPPED PREFETCHES: 0
PSCL3 PREFETCHES SAME FILL-ORIGIN LEVEL: 0 DIFFERENT FILL-ORIGIN LEVEL: 0

PSCL2 TOTAL     ACCESS:      82971  HIT:      77982  MISS:       4989  HIT %:    93.9871  MISS %:    6.01294   MPKI: 0.024945
PSCL2 LOAD TRANSLATION ACCESS:      73292  HIT:      68303  MISS:       4989  HIT %:     93.193  MISS %:    6.80702   MPKI: 0.024945
PSCL2 TRANSLATION FROM L1D PREFETCHER ACCESS:       9679  HIT:       9679  MISS:          0  HIT %:        100  MISS %:          0   MPKI: 0
PSCL2 PREFETCH  REQUESTED:          0  ISSUED:          0  USEFUL:          0  USELESS:          0
PSCL2 USEFUL LOAD PREFETCHES:          0 PREFETCH ISSUED TO LOWER LEVEL:          0  ACCURACY: -nan
PSCL2 TIMELY PREFETCHES:          0 LATE PREFETCHES: 0 DROPPED PREFETCHES: 0
PSCL2 PREFETCHES SAME FILL-ORIGIN LEVEL: 0 DIFFERENT FILL-ORIGIN LEVEL: 0

LLC TOTAL     ACCESS:   10557378  HIT:    4214835  MISS:    6342543  HIT %:    39.9231  MISS %:    60.0769   MPKI: 31.7127
LLC LOAD      ACCESS:    2641111  HIT:    1586723  MISS:    1054388  HIT %:    60.0779  MISS %:    39.9221   MPKI: 5.27194
LLC RFO       ACCESS:    3539736  HIT:     979490  MISS:    2560246  HIT %:    27.6713  MISS %:    72.3287   MPKI: 12.8012
LLC PREFETCH  ACCESS:     298221  HIT:      88975  MISS:     209246  HIT %:    29.8353  MISS %:    70.1647   MPKI: 1.04623
AGUS PREFETCH L1 MISS: 0
LLC WRITEBACK ACCESS:    4034032  HIT:    1541766  MISS:    2492266  HIT %:     38.219  MISS %:     61.781   MPKI: 12.4613
LLC LOAD TRANSLATION ACCESS:      32649  HIT:      11398  MISS:      21251  HIT %:    34.9107  MISS %:    65.0893   MPKI: 0.106255
LLC TRANSLATION FROM L1D PREFETCHER ACCESS:      11629  HIT:       6483  MISS:       5146  HIT %:    55.7486  MISS %:    44.2514   MPKI: 0.02573
LLC PREFETCH  REQUESTED:          0  ISSUED:          0  USEFUL:        937  USELESS:     213679
LLC USEFUL LOAD PREFETCHES:        937 PREFETCH ISSUED TO LOWER LEVEL:     209246  ACCURACY: 0.447798
LLC TIMELY PREFETCHES:        937 LATE PREFETCHES: 0 DROPPED PREFETCHES: 0
LLC PREFETCHES SAME FILL-ORIGIN LEVEL: 0 DIFFERENT FILL-ORIGIN LEVEL: 0
LLC AVERAGE MISS LATENCY: 135.033 cycles
LLC RQ	ACCESS:    6225211	FORWARD:          0	MERGED:          0	TO_CACHE:    6225130
LLC WQ	ACCESS:    4034033	FORWARD:         81	MERGED:          0	TO_CACHE:    4034033
LLC PQ	ACCESS:     298221	FORWARD:          0	MERGED:          0	TO_CACHE:     298221

LLC Dense regions hint to LLC: 0

RAW hits: 2456085
Loads Generated: 47572346
Loads sent to L1D: 45116261
Stores Generated: 34120702
Stores sent to L1D: 34120710
Major fault: 0 Minor fault: 8128
Allocated PAGES: 8128
Completed 

DRAM Statistics
 CHANNEL 0
 RQ ROW_BUFFER_HIT:    1802088  ROW_BUFFER_MISS:    2047783
 DBUS_CONGESTED:       1958
 WQ ROW_BUFFER_HIT:     576398  ROW_BUFFER_MISS:    2052175  FULL:      55751

 AVG_CONGESTED_CYCLE: 3
 All warmup complete: 2
Channel 0 Bank busy for read cycles: 0
Channel 0 Bank busy for write cycles: 0
Channel 0
Rank 0
0banks busy for read cycles: 171616361
0banks busy for write cycles: 276060
1banks busy for read cycles: 34482614
1banks busy for write cycles: 38717335
2banks busy for read cycles: 14369099
2banks busy for write cycles: 13529506
3banks busy for read cycles: 16837680
3banks busy for write cycles: 6023105
4banks busy for read cycles: 7249244
4banks busy for write cycles: 3810128
5banks busy for read cycles: 5548049
5banks busy for write cycles: 3259590
6banks busy for read cycles: 8444951
6banks busy for write cycles: 3266070
7banks busy for read cycles: 8499793
7banks busy for write cycles: 5881253
8banks busy for read cycles: 15419768
8banks busy for write cycles: 35917727

CPU 0 Branch Prediction Accuracy: 99.9481% MPKI: 0.07946 Average ROB Occupancy at Mispredict: 127.816
Branch types
NOT_BRANCH: 169359723 84.6799%
BRANCH_DIRECT_JUMP: 1652264 0.826132%
BRANCH_INDIRECT: 9950804 4.9754%
BRANCH_CONDITIONAL: 12232163 6.11608%
BRANCH_DIRECT_CALL: 2809801 1.4049%
BRANCH_INDIRECT_CALL: 592726 0.296363%
BRANCH_RETURN: 3402369 1.70118%
BRANCH_OTHER: 0 0%

DRAM PAGES: 1048576
Allocated PAGES: 8128
