
*** ChampSim Multicore Out-of-Order Simulator ***

Warmup Instructions: 50000000
Simulation Instructions: 200000000
Number of CPUs: 1
LLC sets: 2048
LLC ways: 16
Off-chip DRAM Size: 4096 MB Channels: 1 Width: 64-bit Data Rate: 6400 MT/s
CPU 0 runs traces/spec2k17/srv_1.champsimtrace.xz
.xz
BTB has LRU replacement policy
ITLB has LRU replacement policy
DTLB has LRU replacement policy
STLB has LRU replacement policy
L1I has LRU replacement policy
L1D has LRU replacement policy
Initialize SRRIP state for L2C
Initialize DRRIP state for LLC
Heartbeat CPU 0 instructions: 10000000 cycles: 3970276 heartbeat IPC: 2.51872 cumulative IPC: 2.51872 (Simulation time: 0 hr 1 min 1 sec) 
Heartbeat CPU 0 instructions: 20000003 cycles: 7275632 heartbeat IPC: 3.02539 cumulative IPC: 2.7489 (Simulation time: 0 hr 1 min 36 sec) 
Heartbeat CPU 0 instructions: 30000003 cycles: 10057679 heartbeat IPC: 3.59448 cumulative IPC: 2.9828 (Simulation time: 0 hr 2 min 7 sec) 
*** Reached end of trace for Core: 0 Repeating trace: traces/spec2k17/srv_1.champsimtrace.xz
Heartbeat CPU 0 instructions: 40000001 cycles: 13901393 heartbeat IPC: 2.60165 cumulative IPC: 2.87741 (Simulation time: 0 hr 2 min 59 sec) 
Heartbeat CPU 0 instructions: 50000001 cycles: 17326190 heartbeat IPC: 2.91988 cumulative IPC: 2.8858 (Simulation time: 0 hr 3 min 44 sec) 

Warmup complete CPU 0 instructions: 50000001 cycles: 17326190 (Simulation time: 0 hr 3 min 44 sec) 

Heartbeat CPU 0 instructions: 60000000 cycles: 41624395 heartbeat IPC: 0.411553 cumulative IPC: 0.411553 (Simulation time: 0 hr 4 min 25 sec) 
*** Reached end of trace for Core: 0 Repeating trace: traces/spec2k17/srv_1.champsimtrace.xz
Heartbeat CPU 0 instructions: 70000003 cycles: 73537054 heartbeat IPC: 0.313355 cumulative IPC: 0.355803 (Simulation time: 0 hr 5 min 21 sec) 
Heartbeat CPU 0 instructions: 80000001 cycles: 103353632 heartbeat IPC: 0.335384 cumulative IPC: 0.348726 (Simulation time: 0 hr 6 min 9 sec) 
Heartbeat CPU 0 instructions: 90000000 cycles: 127743223 heartbeat IPC: 0.410011 cumulative IPC: 0.362263 (Simulation time: 0 hr 6 min 48 sec) 
*** Reached end of trace for Core: 0 Repeating trace: traces/spec2k17/srv_1.champsimtrace.xz
Heartbeat CPU 0 instructions: 100000000 cycles: 158662576 heartbeat IPC: 0.323422 cumulative IPC: 0.353766 (Simulation time: 0 hr 7 min 37 sec) 
Heartbeat CPU 0 instructions: 110000000 cycles: 189318694 heartbeat IPC: 0.326199 cumulative IPC: 0.348852 (Simulation time: 0 hr 8 min 25 sec) 
Heartbeat CPU 0 instructions: 120000001 cycles: 213646209 heartbeat IPC: 0.411057 cumulative IPC: 0.356561 (Simulation time: 0 hr 9 min 2 sec) 
*** Reached end of trace for Core: 0 Repeating trace: traces/spec2k17/srv_1.champsimtrace.xz
Heartbeat CPU 0 instructions: 130000000 cycles: 243678790 heartbeat IPC: 0.332972 cumulative IPC: 0.353431 (Simulation time: 0 hr 10 min 4 sec) 
Heartbeat CPU 0 instructions: 140000002 cycles: 275173824 heartbeat IPC: 0.31751 cumulative IPC: 0.349043 (Simulation time: 0 hr 10 min 57 sec) 
Heartbeat CPU 0 instructions: 150000002 cycles: 299423979 heartbeat IPC: 0.412369 cumulative IPC: 0.354487 (Simulation time: 0 hr 11 min 53 sec) 
*** Reached end of trace for Core: 0 Repeating trace: traces/spec2k17/srv_1.champsimtrace.xz
Heartbeat CPU 0 instructions: 160000000 cycles: 328570482 heartbeat IPC: 0.343094 cumulative IPC: 0.35342 (Simulation time: 0 hr 13 min 0 sec) 
Heartbeat CPU 0 instructions: 170000000 cycles: 360787987 heartbeat IPC: 0.31039 cumulative IPC: 0.349384 (Simulation time: 0 hr 14 min 28 sec) 
Heartbeat CPU 0 instructions: 180000000 cycles: 385098714 heartbeat IPC: 0.411341 cumulative IPC: 0.353479 (Simulation time: 0 hr 15 min 32 sec) 
*** Reached end of trace for Core: 0 Repeating trace: traces/spec2k17/srv_1.champsimtrace.xz
Heartbeat CPU 0 instructions: 190000001 cycles: 413382203 heartbeat IPC: 0.353563 cumulative IPC: 0.353485 (Simulation time: 0 hr 16 min 40 sec) 
Heartbeat CPU 0 instructions: 200000002 cycles: 446451344 heartbeat IPC: 0.302397 cumulative IPC: 0.349548 (Simulation time: 0 hr 18 min 2 sec) 
Heartbeat CPU 0 instructions: 210000002 cycles: 470728859 heartbeat IPC: 0.411904 cumulative IPC: 0.352887 (Simulation time: 0 hr 19 min 1 sec) 
*** Reached end of trace for Core: 0 Repeating trace: traces/spec2k17/srv_1.champsimtrace.xz
Heartbeat CPU 0 instructions: 220000000 cycles: 498151280 heartbeat IPC: 0.364665 cumulative IPC: 0.353559 (Simulation time: 0 hr 20 min 5 sec) 
Heartbeat CPU 0 instructions: 230000000 cycles: 532386846 heartbeat IPC: 0.292094 cumulative IPC: 0.349473 (Simulation time: 0 hr 21 min 31 sec) 
Heartbeat CPU 0 instructions: 240000000 cycles: 556298263 heartbeat IPC: 0.41821 cumulative IPC: 0.352523 (Simulation time: 0 hr 22 min 31 sec) 
*** Reached end of trace for Core: 0 Repeating trace: traces/spec2k17/srv_1.champsimtrace.xz
Heartbeat CPU 0 instructions: 250000001 cycles: 582316293 heartbeat IPC: 0.384349 cumulative IPC: 0.353988 (Simulation time: 0 hr 23 min 35 sec) 
Finished CPU 0 instructions: 200000000 cycles: 564990103 cumulative IPC: 0.353989 (Simulation time: 0 hr 23 min 35 sec) 

ChampSim completed all CPUs

Region of Interest Statistics

CPU 0 cumulative IPC: 0.353989 instructions: 200000000 cycles: 564990103
ITLB TOTAL     ACCESS:   38214134  HIT:   37663807  MISS:     550327  HIT %:    98.5599  MISS %:    1.44011   MPKI: 2.75163
ITLB LOAD TRANSLATION ACCESS:   38214134  HIT:   37663807  MISS:     550327  HIT %:    98.5599  MISS %:    1.44011   MPKI: 2.75163
ITLB PREFETCH  REQUESTED:          0  ISSUED:          0  USEFUL:          0  USELESS:          0
ITLB USEFUL LOAD PREFETCHES:          0 PREFETCH ISSUED TO LOWER LEVEL:          0  ACCURACY: -nan
ITLB TIMELY PREFETCHES:          0 LATE PREFETCHES: 0 DROPPED PREFETCHES: 0
ITLB PREFETCHES SAME FILL-ORIGIN LEVEL: 0 DIFFERENT FILL-ORIGIN LEVEL: 0
ITLB AVERAGE MISS LATENCY: 16.2391 cycles
ITLB RQ	ACCESS:   43869350	FORWARD:          0	MERGED:    5521996	TO_CACHE:   38347354

DTLB TOTAL     ACCESS:   43924179  HIT:   35232795  MISS:    8691384  HIT %:    80.2128  MISS %:    19.7872   MPKI: 43.4569
DTLB LOAD TRANSLATION ACCESS:   43924179  HIT:   35232795  MISS:    8691384  HIT %:    80.2128  MISS %:    19.7872   MPKI: 43.4569
DTLB PREFETCH  REQUESTED:          0  ISSUED:          0  USEFUL:          0  USELESS:          0
DTLB USEFUL LOAD PREFETCHES:          0 PREFETCH ISSUED TO LOWER LEVEL:          0  ACCURACY: -nan
DTLB TIMELY PREFETCHES:          0 LATE PREFETCHES: 0 DROPPED PREFETCHES: 0
DTLB PREFETCHES SAME FILL-ORIGIN LEVEL: 0 DIFFERENT FILL-ORIGIN LEVEL: 0
DTLB AVERAGE MISS LATENCY: 9.09048 cycles
DTLB RQ	ACCESS:   59113421	FORWARD:          0	MERGED:   15018265	TO_CACHE:   44095156

STLB TOTAL     ACCESS:   27307986  HIT:   26979140  MISS:     328846  HIT %:    98.7958  MISS %:    1.20421   MPKI: 1.64423
STLB LOAD TRANSLATION ACCESS:    9241711  HIT:    8917923  MISS:     323788  HIT %:    96.4964  MISS %:    3.50355   MPKI: 1.61894
STLB TRANSLATION FROM L1D PREFETCHER ACCESS:   18066275  HIT:   18061217  MISS:       5058  HIT %:     99.972  MISS %:  0.0279969   MPKI: 0.02529
STLB PREFETCH  REQUESTED:          0  ISSUED:          0  USEFUL:       4213  USELESS:        840
STLB USEFUL LOAD PREFETCHES:       4213 PREFETCH ISSUED TO LOWER LEVEL:          0  ACCURACY: inf
STLB TIMELY PREFETCHES:       4213 LATE PREFETCHES: 904 DROPPED PREFETCHES: 469066
STLB PREFETCHES SAME FILL-ORIGIN LEVEL: 0 DIFFERENT FILL-ORIGIN LEVEL: 0
STLB AVERAGE MISS LATENCY: 40.5321 cycles
STLB RQ	ACCESS:   33358796	FORWARD:          0	MERGED:    5579940	TO_CACHE:   27778856

STLB Hit, L1D data hit: 0
STLB Hit, L2C data hit: 0
STLB Hit, LLC data hit: 0
STLB Hit, LLC data miss: 0
STLB STLB hints to L2: 0
L1D TOTAL     ACCESS:   76305741  HIT:   64066215  MISS:   12239526  HIT %:    83.9599  MISS %:    16.0401   MPKI: 61.1976
L1D LOAD      ACCESS:   41068076  HIT:   30870120  MISS:   10197956  HIT %:    75.1682  MISS %:    24.8318   MPKI: 50.9898
L1D RFO       ACCESS:   17656933  HIT:   17287112  MISS:     369821  HIT %:    97.9055  MISS %:    2.09448   MPKI: 1.8491
L1D PREFETCH  ACCESS:   17580732  HIT:   15908983  MISS:    1671749  HIT %:     90.491  MISS %:    9.50898   MPKI: 8.35875
AGUS PREFETCH L1 MISS: 0
L1D PREFETCH  REQUESTED:   53116021  ISSUED:   53114402  USEFUL:    1579029  USELESS:      92721
L1D USEFUL LOAD PREFETCHES:    1579029 PREFETCH ISSUED TO LOWER LEVEL:    3466338  ACCURACY: 45.5532
L1D TIMELY PREFETCHES:    1579029 LATE PREFETCHES: 1794379 DROPPED PREFETCHES: 511132
L1D PREFETCHES SAME FILL-ORIGIN LEVEL: 3466338 DIFFERENT FILL-ORIGIN LEVEL: 0
L1D AVERAGE MISS LATENCY: 4.42562e+07 cycles
L1D RQ	ACCESS:   54070380	FORWARD:          0	MERGED:   12743633	TO_CACHE:   41167463
L1D WQ	ACCESS:   18253453	FORWARD:     243473	MERGED:     307495	TO_CACHE:   17945958
L1D PQ	ACCESS:   28997317	FORWARD:          0	MERGED:    4796043	TO_CACHE:   24117085

L1D UNIQUE REGIONS ACCESSED: 0
L1D REGIONS CONFLICTS: 0
L1D Cross Page Prefetch Requests: 25645972
L1D Same Page Prefetch Requests: 10390573
L1D ROI Sum of L1D PQ occupancy: 348427202
L1D PREFETCHES PUSHED FROM L2C: 0
L1I TOTAL     ACCESS:   42790254  HIT:   39343869  MISS:    3446385  HIT %:    91.9459  MISS %:    8.05414   MPKI: 17.2319
L1I LOAD      ACCESS:   42790254  HIT:   39343869  MISS:    3446385  HIT %:    91.9459  MISS %:    8.05414   MPKI: 17.2319
L1I PREFETCH  REQUESTED:          0  ISSUED:          0  USEFUL:          0  USELESS:          0
L1I USEFUL LOAD PREFETCHES:          0 PREFETCH ISSUED TO LOWER LEVEL:          0  ACCURACY: -nan
L1I TIMELY PREFETCHES:          0 LATE PREFETCHES: 0 DROPPED PREFETCHES: 0
L1I PREFETCHES SAME FILL-ORIGIN LEVEL: 0 DIFFERENT FILL-ORIGIN LEVEL: 0
L1I AVERAGE MISS LATENCY: 28.6066 cycles
L1I RQ	ACCESS:   66225832	FORWARD:          0	MERGED:   22356482	TO_CACHE:   43869350

BTB TOTAL     ACCESS:   33996129  HIT:   29348304  MISS:    4647825  HIT %:    86.3284  MISS %:    13.6716   MPKI: 23.2391
BTB BRANCH_DIRECT_JUMP	ACCESS:    1820121  HIT:    1607789  MISS:     212332
BTB BRANCH_INDIRECT	ACCESS:   19847784  HIT:   17441635  MISS:    2406149
BTB BRANCH_CONDITIONAL	ACCESS:    4748982  HIT:    4420071  MISS:     328911
BTB BRANCH_DIRECT_CALL	ACCESS:    3062626  HIT:    2647973  MISS:     414653
BTB BRANCH_INDIRECT_CALL	ACCESS:     723674  HIT:     676539  MISS:      47135
BTB BRANCH_RETURN	ACCESS:    3792942  HIT:    2554297  MISS:    1238645
BTB BRANCH_OTHER ACCESS:          0  HIT:          0  MISS:          0

L2C TOTAL     ACCESS:   17465027  HIT:   14690709  MISS:    2774318  HIT %:     84.115  MISS %:     15.885   MPKI: 13.8716
L2C LOAD      ACCESS:   11849941  HIT:    9465578  MISS:    2384363  HIT %:    79.8787  MISS %:    20.1213   MPKI: 11.9218
L2C DATA LOAD MPKI: 3.94344
L2C INSTRUCTION LOAD MPKI: 7.97838
L2C RFO       ACCESS:     369611  HIT:     241578  MISS:     128033  HIT %:    65.3601  MISS %:    34.6399   MPKI: 0.640165
L2C PREFETCH  ACCESS:    3466325  HIT:    3417547  MISS:      48778  HIT %:    98.5928  MISS %:     1.4072   MPKI: 0.24389
AGUS PREFETCH L1 MISS: 0
L2C DATA PREFETCH MPKI: 0.24389
L2C INSTRUCTION PREFETCH MPKI: 0
L2C WRITEBACK ACCESS:     798783  HIT:     760732  MISS:      38051  HIT %:    95.2364  MISS %:    4.76362   MPKI: 0.190255
L2C LOAD TRANSLATION ACCESS:     409628  HIT:     258788  MISS:     150840  HIT %:    63.1763  MISS %:    36.8237   MPKI: 0.7542
L2C TRANSLATION FROM L1D PREFETCHER ACCESS:     570739  HIT:     546486  MISS:      24253  HIT %:    95.7506  MISS %:     4.2494   MPKI: 0.121265
L2C PREFETCH  REQUESTED:          0  ISSUED:          0  USEFUL:      16995  USELESS:      55910
L2C USEFUL LOAD PREFETCHES:      16995 PREFETCH ISSUED TO LOWER LEVEL:      48778  ACCURACY: 34.8415
L2C TIMELY PREFETCHES:      16995 LATE PREFETCHES: 0 DROPPED PREFETCHES: 0
L2C PREFETCHES SAME FILL-ORIGIN LEVEL: 0 DIFFERENT FILL-ORIGIN LEVEL: 0
L2C AVERAGE MISS LATENCY: 42.0167 cycles
L2C RQ	ACCESS:   13199940	FORWARD:          0	MERGED:          0	TO_CACHE:   13199919
L2C WQ	ACCESS:     798783	FORWARD:         34	MERGED:          0	TO_CACHE:     798783
L2C PQ	ACCESS:    3466338	FORWARD:          0	MERGED:          0	TO_CACHE:    3466325

L2C Instructions Evicting Data 573930
L2C Translations Evicting Data 63352
L2C Data Evicting Data 351587
L2C Instructions Evicting Instructions 921231
L2C Translations Evicting Instructions 99907
L2C Data Evicting Instructions 553630
L2C Instructions Evicting Translations 100515
L2C Translations Evicting Translations 11834
L2C Data Evicting Translations 60281
L2C Dense regions hint from L2: 0
PSCL5 TOTAL     ACCESS:     796753  HIT:     796753  MISS:          0  HIT %:        100  MISS %:          0   MPKI: 0
PSCL5 LOAD TRANSLATION ACCESS:     322884  HIT:     322884  MISS:          0  HIT %:        100  MISS %:          0   MPKI: 0
PSCL5 TRANSLATION FROM L1D PREFETCHER ACCESS:     473869  HIT:     473869  MISS:          0  HIT %:        100  MISS %:          0   MPKI: 0
PSCL5 PREFETCH  REQUESTED:          0  ISSUED:          0  USEFUL:          0  USELESS:          0
PSCL5 USEFUL LOAD PREFETCHES:          0 PREFETCH ISSUED TO LOWER LEVEL:          0  ACCURACY: -nan
PSCL5 TIMELY PREFETCHES:          0 LATE PREFETCHES: 0 DROPPED PREFETCHES: 0
PSCL5 PREFETCHES SAME FILL-ORIGIN LEVEL: 0 DIFFERENT FILL-ORIGIN LEVEL: 0

PSCL4 TOTAL     ACCESS:     759042  HIT:     758234  MISS:        808  HIT %:    99.8936  MISS %:    0.10645   MPKI: 0.00404
PSCL4 LOAD TRANSLATION ACCESS:     312517  HIT:     311709  MISS:        808  HIT %:    99.7415  MISS %:   0.258546   MPKI: 0.00404
PSCL4 TRANSLATION FROM L1D PREFETCHER ACCESS:     446525  HIT:     446525  MISS:          0  HIT %:        100  MISS %:          0   MPKI: 0
PSCL4 PREFETCH  REQUESTED:          0  ISSUED:          0  USEFUL:          0  USELESS:          0
PSCL4 USEFUL LOAD PREFETCHES:          0 PREFETCH ISSUED TO LOWER LEVEL:          0  ACCURACY: -nan
PSCL4 TIMELY PREFETCHES:          0 LATE PREFETCHES: 0 DROPPED PREFETCHES: 0
PSCL4 PREFETCHES SAME FILL-ORIGIN LEVEL: 0 DIFFERENT FILL-ORIGIN LEVEL: 0

PSCL3 TOTAL     ACCESS:     737400  HIT:     734746  MISS:       2654  HIT %:    99.6401  MISS %:   0.359913   MPKI: 0.01327
PSCL3 LOAD TRANSLATION ACCESS:     320012  HIT:     317358  MISS:       2654  HIT %:    99.1707  MISS %:   0.829344   MPKI: 0.01327
PSCL3 TRANSLATION FROM L1D PREFETCHER ACCESS:     417388  HIT:     417388  MISS:          0  HIT %:        100  MISS %:          0   MPKI: 0
PSCL3 PREFETCH  REQUESTED:          0  ISSUED:          0  USEFUL:          0  USELESS:          0
PSCL3 USEFUL LOAD PREFETCHES:          0 PREFETCH ISSUED TO LOWER LEVEL:          0  ACCURACY: -nan
PSCL3 TIMELY PREFETCHES:          0 LATE PREFETCHES: 0 DROPPED PREFETCHES: 0
PSCL3 PREFETCHES SAME FILL-ORIGIN LEVEL: 0 DIFFERENT FILL-ORIGIN LEVEL: 0

PSCL2 TOTAL     ACCESS:     347792  HIT:     261439  MISS:      86353  HIT %:    75.1711  MISS %:    24.8289   MPKI: 0.431765
PSCL2 LOAD TRANSLATION ACCESS:     325910  HIT:     239557  MISS:      86353  HIT %:     73.504  MISS %:     26.496   MPKI: 0.431765
PSCL2 TRANSLATION FROM L1D PREFETCHER ACCESS:      21882  HIT:      21882  MISS:          0  HIT %:        100  MISS %:          0   MPKI: 0
PSCL2 PREFETCH  REQUESTED:          0  ISSUED:          0  USEFUL:          0  USELESS:          0
PSCL2 USEFUL LOAD PREFETCHES:          0 PREFETCH ISSUED TO LOWER LEVEL:          0  ACCURACY: -nan
PSCL2 TIMELY PREFETCHES:          0 LATE PREFETCHES: 0 DROPPED PREFETCHES: 0
PSCL2 PREFETCHES SAME FILL-ORIGIN LEVEL: 0 DIFFERENT FILL-ORIGIN LEVEL: 0

LLC TOTAL     ACCESS:    3069164  HIT:    2857354  MISS:     211810  HIT %:    93.0988  MISS %:    6.90123   MPKI: 1.05905
LLC LOAD      ACCESS:    2384363  HIT:    2219761  MISS:     164602  HIT %:    93.0966  MISS %:     6.9034   MPKI: 0.82301
LLC RFO       ACCESS:     128033  HIT:      96706  MISS:      31327  HIT %:    75.5321  MISS %:    24.4679   MPKI: 0.156635
LLC PREFETCH  ACCESS:      48778  HIT:      40999  MISS:       7779  HIT %:    84.0522  MISS %:    15.9478   MPKI: 0.038895
AGUS PREFETCH L1 MISS: 0
LLC WRITEBACK ACCESS:     332897  HIT:     330861  MISS:       2036  HIT %:    99.3884  MISS %:   0.611601   MPKI: 0.01018
LLC LOAD TRANSLATION ACCESS:     150840  HIT:     146708  MISS:       4132  HIT %:    97.2607  MISS %:    2.73933   MPKI: 0.02066
LLC TRANSLATION FROM L1D PREFETCHER ACCESS:      24253  HIT:      22319  MISS:       1934  HIT %:    92.0257  MISS %:    7.97427   MPKI: 0.00967
LLC PREFETCH  REQUESTED:          0  ISSUED:          0  USEFUL:       1101  USELESS:       8563
LLC USEFUL LOAD PREFETCHES:       1101 PREFETCH ISSUED TO LOWER LEVEL:       7779  ACCURACY: 14.1535
LLC TIMELY PREFETCHES:       1101 LATE PREFETCHES: 0 DROPPED PREFETCHES: 0
LLC PREFETCHES SAME FILL-ORIGIN LEVEL: 0 DIFFERENT FILL-ORIGIN LEVEL: 0
LLC AVERAGE MISS LATENCY: 162.78 cycles
LLC RQ	ACCESS:    2687489	FORWARD:          0	MERGED:          0	TO_CACHE:    2687489
LLC WQ	ACCESS:     332897	FORWARD:          0	MERGED:          0	TO_CACHE:     332897
LLC PQ	ACCESS:      48778	FORWARD:          0	MERGED:          0	TO_CACHE:      48778

LLC Dense regions hint to LLC: 0

RAW hits: 2311381
Loads Generated: 56381758
Loads sent to L1D: 54070380
Stores Generated: 18253447
Stores sent to L1D: 18253453
Major fault: 0 Minor fault: 4447
Allocated PAGES: 4447
Completed 

DRAM Statistics
 CHANNEL 0
 RQ ROW_BUFFER_HIT:      45040  ROW_BUFFER_MISS:     164732
 DBUS_CONGESTED:        120
 WQ ROW_BUFFER_HIT:      18937  ROW_BUFFER_MISS:     114413  FULL:          0

 AVG_CONGESTED_CYCLE: 4
 All warmup complete: 2
Channel 0 Bank busy for read cycles: 0
Channel 0 Bank busy for write cycles: 0
Channel 0
Rank 0
0banks busy for read cycles: 528215110
0banks busy for write cycles: 77523
1banks busy for read cycles: 18426560
1banks busy for write cycles: 11133727
2banks busy for read cycles: 2343128
2banks busy for write cycles: 2176529
3banks busy for read cycles: 376318
3banks busy for write cycles: 700351
4banks busy for read cycles: 157974
4banks busy for write cycles: 328622
5banks busy for read cycles: 76613
5banks busy for write cycles: 187935
6banks busy for read cycles: 49057
6banks busy for write cycles: 122946
7banks busy for read cycles: 54098
7banks busy for write cycles: 120543
8banks busy for read cycles: 137714
8banks busy for write cycles: 305356

CPU 0 Branch Prediction Accuracy: 99.8043% MPKI: 0.43045 Average ROB Occupancy at Mispredict: 29.373
Branch types
NOT_BRANCH: 156016058 78.008%
BRANCH_DIRECT_JUMP: 1820121 0.910061%
BRANCH_INDIRECT: 19847784 9.92389%
BRANCH_CONDITIONAL: 14736604 7.3683%
BRANCH_DIRECT_CALL: 3062626 1.53131%
BRANCH_INDIRECT_CALL: 723674 0.361837%
BRANCH_RETURN: 3792942 1.89647%
BRANCH_OTHER: 0 0%

DRAM PAGES: 1048576
Allocated PAGES: 4447
