
*** ChampSim Multicore Out-of-Order Simulator ***

Warmup Instructions: 50000000
Simulation Instructions: 200000000
Number of CPUs: 1
LLC sets: 2048
LLC ways: 16
Off-chip DRAM Size: 4096 MB Channels: 1 Width: 64-bit Data Rate: 6400 MT/s
CPU 0 runs traces/spec2k17/srv_21.champsimtrace.xz
.xz
BTB has LRU replacement policy
ITLB has LRU replacement policy
DTLB has LRU replacement policy
STLB has LRU replacement policy
L1I has LRU replacement policy
L1D has LRU replacement policy
Initialize SRRIP state for L2C
Initialize DRRIP state for LLC
Heartbeat CPU 0 instructions: 10000003 cycles: 2822802 heartbeat IPC: 3.54258 cumulative IPC: 3.54258 (Simulation time: 0 hr 0 min 54 sec) 
Heartbeat CPU 0 instructions: 20000002 cycles: 5642297 heartbeat IPC: 3.54673 cumulative IPC: 3.54466 (Simulation time: 0 hr 1 min 34 sec) 
Heartbeat CPU 0 instructions: 30000000 cycles: 8461830 heartbeat IPC: 3.54669 cumulative IPC: 3.54533 (Simulation time: 0 hr 2 min 14 sec) 
*** Reached end of trace for Core: 0 Repeating trace: traces/spec2k17/srv_21.champsimtrace.xz
Heartbeat CPU 0 instructions: 40000002 cycles: 11284085 heartbeat IPC: 3.54327 cumulative IPC: 3.54482 (Simulation time: 0 hr 2 min 53 sec) 
Heartbeat CPU 0 instructions: 50000001 cycles: 14107299 heartbeat IPC: 3.54206 cumulative IPC: 3.54426 (Simulation time: 0 hr 3 min 31 sec) 

Warmup complete CPU 0 instructions: 50000001 cycles: 14107299 (Simulation time: 0 hr 3 min 31 sec) 

Heartbeat CPU 0 instructions: 60000002 cycles: 46180237 heartbeat IPC: 0.311789 cumulative IPC: 0.311789 (Simulation time: 0 hr 4 min 36 sec) 
*** Reached end of trace for Core: 0 Repeating trace: traces/spec2k17/srv_21.champsimtrace.xz
Heartbeat CPU 0 instructions: 70000002 cycles: 78194011 heartbeat IPC: 0.312366 cumulative IPC: 0.312077 (Simulation time: 0 hr 5 min 29 sec) 
Heartbeat CPU 0 instructions: 80000000 cycles: 110147067 heartbeat IPC: 0.312959 cumulative IPC: 0.312371 (Simulation time: 0 hr 6 min 21 sec) 
Heartbeat CPU 0 instructions: 90000000 cycles: 142083363 heartbeat IPC: 0.313123 cumulative IPC: 0.312558 (Simulation time: 0 hr 7 min 19 sec) 
*** Reached end of trace for Core: 0 Repeating trace: traces/spec2k17/srv_21.champsimtrace.xz
Heartbeat CPU 0 instructions: 100000002 cycles: 173999487 heartbeat IPC: 0.313321 cumulative IPC: 0.312711 (Simulation time: 0 hr 8 min 23 sec) 
Heartbeat CPU 0 instructions: 110000000 cycles: 205682081 heartbeat IPC: 0.315631 cumulative IPC: 0.313194 (Simulation time: 0 hr 9 min 28 sec) 
Heartbeat CPU 0 instructions: 120000001 cycles: 237557862 heartbeat IPC: 0.313718 cumulative IPC: 0.313268 (Simulation time: 0 hr 10 min 32 sec) 
*** Reached end of trace for Core: 0 Repeating trace: traces/spec2k17/srv_21.champsimtrace.xz
Heartbeat CPU 0 instructions: 130000002 cycles: 269353527 heartbeat IPC: 0.314508 cumulative IPC: 0.313423 (Simulation time: 0 hr 11 min 38 sec) 
Heartbeat CPU 0 instructions: 140000000 cycles: 300948991 heartbeat IPC: 0.316501 cumulative IPC: 0.313762 (Simulation time: 0 hr 12 min 45 sec) 
Heartbeat CPU 0 instructions: 150000001 cycles: 332756356 heartbeat IPC: 0.314393 cumulative IPC: 0.313825 (Simulation time: 0 hr 13 min 54 sec) 
*** Reached end of trace for Core: 0 Repeating trace: traces/spec2k17/srv_21.champsimtrace.xz
Heartbeat CPU 0 instructions: 160000000 cycles: 364491855 heartbeat IPC: 0.315105 cumulative IPC: 0.313941 (Simulation time: 0 hr 15 min 3 sec) 
Heartbeat CPU 0 instructions: 170000003 cycles: 395948629 heartbeat IPC: 0.317897 cumulative IPC: 0.314267 (Simulation time: 0 hr 15 min 54 sec) 
Heartbeat CPU 0 instructions: 180000003 cycles: 427733503 heartbeat IPC: 0.314615 cumulative IPC: 0.314293 (Simulation time: 0 hr 16 min 53 sec) 
*** Reached end of trace for Core: 0 Repeating trace: traces/spec2k17/srv_21.champsimtrace.xz
Heartbeat CPU 0 instructions: 190000000 cycles: 459463117 heartbeat IPC: 0.315163 cumulative IPC: 0.314355 (Simulation time: 0 hr 17 min 50 sec) 
Heartbeat CPU 0 instructions: 200000000 cycles: 490905398 heartbeat IPC: 0.318043 cumulative IPC: 0.314599 (Simulation time: 0 hr 18 min 57 sec) 
Heartbeat CPU 0 instructions: 210000000 cycles: 522684012 heartbeat IPC: 0.314677 cumulative IPC: 0.314603 (Simulation time: 0 hr 20 min 1 sec) 
*** Reached end of trace for Core: 0 Repeating trace: traces/spec2k17/srv_21.champsimtrace.xz
Heartbeat CPU 0 instructions: 220000000 cycles: 554387053 heartbeat IPC: 0.315427 cumulative IPC: 0.314652 (Simulation time: 0 hr 21 min 4 sec) 
Heartbeat CPU 0 instructions: 230000001 cycles: 585882421 heartbeat IPC: 0.317507 cumulative IPC: 0.314809 (Simulation time: 0 hr 22 min 4 sec) 
Heartbeat CPU 0 instructions: 240000000 cycles: 617542931 heartbeat IPC: 0.315851 cumulative IPC: 0.314864 (Simulation time: 0 hr 23 min 7 sec) 
*** Reached end of trace for Core: 0 Repeating trace: traces/spec2k17/srv_21.champsimtrace.xz
Heartbeat CPU 0 instructions: 250000002 cycles: 649253855 heartbeat IPC: 0.315349 cumulative IPC: 0.314888 (Simulation time: 0 hr 24 min 9 sec) 
Finished CPU 0 instructions: 200000001 cycles: 635146556 cumulative IPC: 0.314888 (Simulation time: 0 hr 24 min 9 sec) 

ChampSim completed all CPUs

Region of Interest Statistics

CPU 0 cumulative IPC: 0.314888 instructions: 200000001 cycles: 635146556
ITLB TOTAL     ACCESS:   34705245  HIT:   32671147  MISS:    2034098  HIT %:    94.1389  MISS %:    5.86107   MPKI: 10.1705
ITLB LOAD TRANSLATION ACCESS:   34705245  HIT:   32671147  MISS:    2034098  HIT %:    94.1389  MISS %:    5.86107   MPKI: 10.1705
ITLB PREFETCH  REQUESTED:          0  ISSUED:          0  USEFUL:          0  USELESS:          0
ITLB USEFUL LOAD PREFETCHES:          0 PREFETCH ISSUED TO LOWER LEVEL:          0  ACCURACY: -nan
ITLB TIMELY PREFETCHES:          0 LATE PREFETCHES: 0 DROPPED PREFETCHES: 0
ITLB PREFETCHES SAME FILL-ORIGIN LEVEL: 0 DIFFERENT FILL-ORIGIN LEVEL: 0
ITLB AVERAGE MISS LATENCY: 9.04479 cycles
ITLB RQ	ACCESS:   40935388	FORWARD:          0	MERGED:    5745035	TO_CACHE:   35190353

DTLB TOTAL     ACCESS:   46527399  HIT:   44704317  MISS:    1823082  HIT %:    96.0817  MISS %:     3.9183   MPKI: 9.11541
DTLB LOAD TRANSLATION ACCESS:   46527399  HIT:   44704317  MISS:    1823082  HIT %:    96.0817  MISS %:     3.9183   MPKI: 9.11541
DTLB PREFETCH  REQUESTED:          0  ISSUED:          0  USEFUL:          0  USELESS:          0
DTLB USEFUL LOAD PREFETCHES:          0 PREFETCH ISSUED TO LOWER LEVEL:          0  ACCURACY: -nan
DTLB TIMELY PREFETCHES:          0 LATE PREFETCHES: 0 DROPPED PREFETCHES: 0
DTLB PREFETCHES SAME FILL-ORIGIN LEVEL: 0 DIFFERENT FILL-ORIGIN LEVEL: 0
DTLB AVERAGE MISS LATENCY: 8.46264 cycles
DTLB RQ	ACCESS:   61178108	FORWARD:          0	MERGED:   14588834	TO_CACHE:   46589274

STLB TOTAL     ACCESS:   19693396  HIT:   19682790  MISS:      10606  HIT %:    99.9461  MISS %:  0.0538556   MPKI: 0.05303
STLB LOAD TRANSLATION ACCESS:    3857180  HIT:    3847729  MISS:       9451  HIT %:     99.755  MISS %:   0.245024   MPKI: 0.047255
STLB TRANSLATION FROM L1D PREFETCHER ACCESS:   15836216  HIT:   15835061  MISS:       1155  HIT %:    99.9927  MISS %: 0.00729341   MPKI: 0.005775
STLB PREFETCH  REQUESTED:          0  ISSUED:          0  USEFUL:        766  USELESS:        383
STLB USEFUL LOAD PREFETCHES:        766 PREFETCH ISSUED TO LOWER LEVEL:          0  ACCURACY: inf
STLB TIMELY PREFETCHES:        766 LATE PREFETCHES: 187 DROPPED PREFETCHES: 278880
STLB PREFETCHES SAME FILL-ORIGIN LEVEL: 0 DIFFERENT FILL-ORIGIN LEVEL: 0
STLB AVERAGE MISS LATENCY: 41.8538 cycles
STLB RQ	ACCESS:   22538653	FORWARD:          0	MERGED:    2566067	TO_CACHE:   19972586

STLB Hit, L1D data hit: 0
STLB Hit, L2C data hit: 0
STLB Hit, LLC data hit: 0
STLB Hit, LLC data miss: 0
STLB STLB hints to L2: 0
L1D TOTAL     ACCESS:   76941435  HIT:   72527211  MISS:    4414224  HIT %:    94.2629  MISS %:    5.73712   MPKI: 22.0711
L1D LOAD      ACCESS:   34280515  HIT:   32081330  MISS:    2199185  HIT %:    93.5847  MISS %:    6.41526   MPKI: 10.9959
L1D RFO       ACCESS:   25117558  HIT:   24045002  MISS:    1072556  HIT %:    95.7299  MISS %:    4.27014   MPKI: 5.36278
L1D PREFETCH  ACCESS:   17543362  HIT:   16400879  MISS:    1142483  HIT %:    93.4877  MISS %:    6.51234   MPKI: 5.71241
AGUS PREFETCH L1 MISS: 0
L1D PREFETCH  REQUESTED:   40332749  ISSUED:   40332733  USEFUL:     795831  USELESS:     346614
L1D USEFUL LOAD PREFETCHES:     795831 PREFETCH ISSUED TO LOWER LEVEL:    1515574  ACCURACY: 52.5102
L1D TIMELY PREFETCHES:     795831 LATE PREFETCHES: 369062 DROPPED PREFETCHES: 300240
L1D PREFETCHES SAME FILL-ORIGIN LEVEL: 1515574 DIFFERENT FILL-ORIGIN LEVEL: 0
L1D AVERAGE MISS LATENCY: 3.34009e+07 cycles
L1D RQ	ACCESS:   47527114	FORWARD:          0	MERGED:   12833485	TO_CACHE:   34390624
L1D WQ	ACCESS:   26956433	FORWARD:     338615	MERGED:     168949	TO_CACHE:   26787484
L1D PQ	ACCESS:   21651260	FORWARD:          0	MERGED:    2934177	TO_CACHE:   18681473

L1D UNIQUE REGIONS ACCESSED: 0
L1D REGIONS CONFLICTS: 0
L1D Cross Page Prefetch Requests: 14537095
L1D Same Page Prefetch Requests: 8142949
L1D ROI Sum of L1D PQ occupancy: 266305593
L1D PREFETCHES PUSHED FROM L2C: 0
L1I TOTAL     ACCESS:   39415811  HIT:   28801368  MISS:   10614443  HIT %:    73.0706  MISS %:    26.9294   MPKI: 53.0722
L1I LOAD      ACCESS:   39415811  HIT:   28801368  MISS:   10614443  HIT %:    73.0706  MISS %:    26.9294   MPKI: 53.0722
L1I PREFETCH  REQUESTED:          0  ISSUED:          0  USEFUL:          0  USELESS:          0
L1I USEFUL LOAD PREFETCHES:          0 PREFETCH ISSUED TO LOWER LEVEL:          0  ACCURACY: -nan
L1I TIMELY PREFETCHES:          0 LATE PREFETCHES: 0 DROPPED PREFETCHES: 0
L1I PREFETCHES SAME FILL-ORIGIN LEVEL: 0 DIFFERENT FILL-ORIGIN LEVEL: 0
L1I AVERAGE MISS LATENCY: 16.6822 cycles
L1I RQ	ACCESS:   57964163	FORWARD:          0	MERGED:   17028775	TO_CACHE:   40935388

BTB TOTAL     ACCESS:   30056913  HIT:   17338349  MISS:   12718564  HIT %:    57.6851  MISS %:    42.3149   MPKI: 63.5928
BTB BRANCH_DIRECT_JUMP	ACCESS:    2028089  HIT:    1137072  MISS:     891017
BTB BRANCH_INDIRECT	ACCESS:   11881298  HIT:    7052868  MISS:    4828430
BTB BRANCH_CONDITIONAL	ACCESS:    7600017  HIT:    6262793  MISS:    1337224
BTB BRANCH_DIRECT_CALL	ACCESS:    3604797  HIT:    1510789  MISS:    2094008
BTB BRANCH_INDIRECT_CALL	ACCESS:     668935  HIT:     263186  MISS:     405749
BTB BRANCH_RETURN	ACCESS:    4273777  HIT:    1111641  MISS:    3162136
BTB BRANCH_OTHER ACCESS:          0  HIT:          0  MISS:          0

L2C TOTAL     ACCESS:   17576875  HIT:   15900847  MISS:    1676028  HIT %:    90.4646  MISS %:    9.53542   MPKI: 8.38014
L2C LOAD      ACCESS:   12444484  HIT:   11233606  MISS:    1210878  HIT %:    90.2698  MISS %:    9.73024   MPKI: 6.05439
L2C DATA LOAD MPKI: 1.46192
L2C INSTRUCTION LOAD MPKI: 4.59246
L2C RFO       ACCESS:    1068516  HIT:     867289  MISS:     201227  HIT %:    81.1676  MISS %:    18.8324   MPKI: 1.00613
L2C PREFETCH  ACCESS:    1515423  HIT:    1340175  MISS:     175248  HIT %:    88.4357  MISS %:    11.5643   MPKI: 0.87624
AGUS PREFETCH L1 MISS: 0
L2C DATA PREFETCH MPKI: 0.87624
L2C INSTRUCTION PREFETCH MPKI: 0
L2C WRITEBACK ACCESS:    2016449  HIT:    1966866  MISS:      49583  HIT %:    97.5411  MISS %:    2.45893   MPKI: 0.247915
L2C LOAD TRANSLATION ACCESS:       9958  HIT:       4061  MISS:       5897  HIT %:    40.7813  MISS %:    59.2187   MPKI: 0.029485
L2C TRANSLATION FROM L1D PREFETCHER ACCESS:     522045  HIT:     488850  MISS:      33195  HIT %:    93.6414  MISS %:    6.35865   MPKI: 0.165975
L2C PREFETCH  REQUESTED:          0  ISSUED:          0  USEFUL:      33084  USELESS:     175132
L2C USEFUL LOAD PREFETCHES:      33084 PREFETCH ISSUED TO LOWER LEVEL:     175248  ACCURACY: 18.8784
L2C TIMELY PREFETCHES:      33084 LATE PREFETCHES: 0 DROPPED PREFETCHES: 0
L2C PREFETCHES SAME FILL-ORIGIN LEVEL: 0 DIFFERENT FILL-ORIGIN LEVEL: 0
L2C AVERAGE MISS LATENCY: 31.0364 cycles
L2C RQ	ACCESS:   14045096	FORWARD:          0	MERGED:          0	TO_CACHE:   14045003
L2C WQ	ACCESS:    2016449	FORWARD:        244	MERGED:          0	TO_CACHE:    2016449
L2C PQ	ACCESS:    1515574	FORWARD:          0	MERGED:          0	TO_CACHE:    1515423

L2C Instructions Evicting Data 365401
L2C Translations Evicting Data 19583
L2C Data Evicting Data 313934
L2C Instructions Evicting Instructions 535003
L2C Translations Evicting Instructions 18611
L2C Data Evicting Instructions 335964
L2C Instructions Evicting Translations 18089
L2C Translations Evicting Translations 898
L2C Data Evicting Translations 18962
L2C Dense regions hint from L2: 0
PSCL5 TOTAL     ACCESS:     288901  HIT:     288901  MISS:          0  HIT %:        100  MISS %:          0   MPKI: 0
PSCL5 LOAD TRANSLATION ACCESS:       9264  HIT:       9264  MISS:          0  HIT %:        100  MISS %:          0   MPKI: 0
PSCL5 TRANSLATION FROM L1D PREFETCHER ACCESS:     279637  HIT:     279637  MISS:          0  HIT %:        100  MISS %:          0   MPKI: 0
PSCL5 PREFETCH  REQUESTED:          0  ISSUED:          0  USEFUL:          0  USELESS:          0
PSCL5 USEFUL LOAD PREFETCHES:          0 PREFETCH ISSUED TO LOWER LEVEL:          0  ACCURACY: -nan
PSCL5 TIMELY PREFETCHES:          0 LATE PREFETCHES: 0 DROPPED PREFETCHES: 0
PSCL5 PREFETCHES SAME FILL-ORIGIN LEVEL: 0 DIFFERENT FILL-ORIGIN LEVEL: 0

PSCL4 TOTAL     ACCESS:     163428  HIT:     163355  MISS:         73  HIT %:    99.9553  MISS %:   0.044668   MPKI: 0.000365
PSCL4 LOAD TRANSLATION ACCESS:       8709  HIT:       8636  MISS:         73  HIT %:    99.1618  MISS %:   0.838213   MPKI: 0.000365
PSCL4 TRANSLATION FROM L1D PREFETCHER ACCESS:     154719  HIT:     154719  MISS:          0  HIT %:        100  MISS %:          0   MPKI: 0
PSCL4 PREFETCH  REQUESTED:          0  ISSUED:          0  USEFUL:          0  USELESS:          0
PSCL4 USEFUL LOAD PREFETCHES:          0 PREFETCH ISSUED TO LOWER LEVEL:          0  ACCURACY: -nan
PSCL4 TIMELY PREFETCHES:          0 LATE PREFETCHES: 0 DROPPED PREFETCHES: 0
PSCL4 PREFETCHES SAME FILL-ORIGIN LEVEL: 0 DIFFERENT FILL-ORIGIN LEVEL: 0

PSCL3 TOTAL     ACCESS:     176669  HIT:     176596  MISS:         73  HIT %:    99.9587  MISS %:  0.0413202   MPKI: 0.000365
PSCL3 LOAD TRANSLATION ACCESS:       8870  HIT:       8797  MISS:         73  HIT %:     99.177  MISS %:   0.822999   MPKI: 0.000365
PSCL3 TRANSLATION FROM L1D PREFETCHER ACCESS:     167799  HIT:     167799  MISS:          0  HIT %:        100  MISS %:          0   MPKI: 0
PSCL3 PREFETCH  REQUESTED:          0  ISSUED:          0  USEFUL:          0  USELESS:          0
PSCL3 USEFUL LOAD PREFETCHES:          0 PREFETCH ISSUED TO LOWER LEVEL:          0  ACCURACY: -nan
PSCL3 TIMELY PREFETCHES:          0 LATE PREFETCHES: 0 DROPPED PREFETCHES: 0
PSCL3 PREFETCHES SAME FILL-ORIGIN LEVEL: 0 DIFFERENT FILL-ORIGIN LEVEL: 0

PSCL2 TOTAL     ACCESS:      70059  HIT:      69466  MISS:        593  HIT %:    99.1536  MISS %:   0.846429   MPKI: 0.002965
PSCL2 LOAD TRANSLATION ACCESS:       9305  HIT:       8712  MISS:        593  HIT %:    93.6271  MISS %:    6.37292   MPKI: 0.002965
PSCL2 TRANSLATION FROM L1D PREFETCHER ACCESS:      60754  HIT:      60754  MISS:          0  HIT %:        100  MISS %:          0   MPKI: 0
PSCL2 PREFETCH  REQUESTED:          0  ISSUED:          0  USEFUL:          0  USELESS:          0
PSCL2 USEFUL LOAD PREFETCHES:          0 PREFETCH ISSUED TO LOWER LEVEL:          0  ACCURACY: -nan
PSCL2 TIMELY PREFETCHES:          0 LATE PREFETCHES: 0 DROPPED PREFETCHES: 0
PSCL2 PREFETCHES SAME FILL-ORIGIN LEVEL: 0 DIFFERENT FILL-ORIGIN LEVEL: 0

LLC TOTAL     ACCESS:    1914606  HIT:    1892561  MISS:      22045  HIT %:    98.8486  MISS %:    1.15141   MPKI: 0.110225
LLC LOAD      ACCESS:    1210878  HIT:    1203259  MISS:       7619  HIT %:    99.3708  MISS %:   0.629213   MPKI: 0.038095
LLC RFO       ACCESS:     201227  HIT:     192644  MISS:       8583  HIT %:    95.7347  MISS %:    4.26533   MPKI: 0.042915
LLC PREFETCH  ACCESS:     175248  HIT:     170494  MISS:       4754  HIT %:    97.2873  MISS %:    2.71273   MPKI: 0.02377
AGUS PREFETCH L1 MISS: 0
LLC WRITEBACK ACCESS:     288161  HIT:     287963  MISS:        198  HIT %:    99.9313  MISS %:  0.0687116   MPKI: 0.00099
LLC LOAD TRANSLATION ACCESS:       5897  HIT:       5815  MISS:         82  HIT %:    98.6095  MISS %:    1.39054   MPKI: 0.00041
LLC TRANSLATION FROM L1D PREFETCHER ACCESS:      33195  HIT:      32386  MISS:        809  HIT %:    97.5629  MISS %:    2.43711   MPKI: 0.004045
LLC PREFETCH  REQUESTED:          0  ISSUED:          0  USEFUL:       1252  USELESS:       2697
LLC USEFUL LOAD PREFETCHES:       1252 PREFETCH ISSUED TO LOWER LEVEL:       4754  ACCURACY: 26.3357
LLC TIMELY PREFETCHES:       1252 LATE PREFETCHES: 0 DROPPED PREFETCHES: 0
LLC PREFETCHES SAME FILL-ORIGIN LEVEL: 0 DIFFERENT FILL-ORIGIN LEVEL: 0
LLC AVERAGE MISS LATENCY: 146.254 cycles
LLC RQ	ACCESS:    1451197	FORWARD:          0	MERGED:          0	TO_CACHE:    1451197
LLC WQ	ACCESS:     288161	FORWARD:          0	MERGED:          0	TO_CACHE:     288161
LLC PQ	ACCESS:     175248	FORWARD:          0	MERGED:          0	TO_CACHE:     175248

LLC Dense regions hint to LLC: 0

RAW hits: 1402039
Loads Generated: 48929152
Loads sent to L1D: 47527114
Stores Generated: 26956434
Stores sent to L1D: 26956433
Major fault: 0 Minor fault: 2008
Allocated PAGES: 2008
Completed 

DRAM Statistics
 CHANNEL 0
 RQ ROW_BUFFER_HIT:       5345  ROW_BUFFER_MISS:      16494
 DBUS_CONGESTED:         49
 WQ ROW_BUFFER_HIT:       1006  ROW_BUFFER_MISS:       9150  FULL:          0

 AVG_CONGESTED_CYCLE: 5
 All warmup complete: 2
Channel 0 Bank busy for read cycles: 0
Channel 0 Bank busy for write cycles: 0
Channel 0
Rank 0
0banks busy for read cycles: 632314234
0banks busy for write cycles: 4874
1banks busy for read cycles: 1481207
1banks busy for write cycles: 652741
2banks busy for read cycles: 233450
2banks busy for write cycles: 94162
3banks busy for read cycles: 88900
3banks busy for write cycles: 43319
4banks busy for read cycles: 54698
4banks busy for write cycles: 28987
5banks busy for read cycles: 30274
5banks busy for write cycles: 27271
6banks busy for read cycles: 14849
6banks busy for write cycles: 27303
7banks busy for read cycles: 6787
7banks busy for write cycles: 21423
8banks busy for read cycles: 2513
8banks busy for write cycles: 19565

CPU 0 Branch Prediction Accuracy: 99.8824% MPKI: 0.20672 Average ROB Occupancy at Mispredict: 32.2717
Branch types
NOT_BRANCH: 164846704 82.4234%
BRANCH_DIRECT_JUMP: 2028089 1.01404%
BRANCH_INDIRECT: 11881298 5.94065%
BRANCH_CONDITIONAL: 12696369 6.34818%
BRANCH_DIRECT_CALL: 3604797 1.8024%
BRANCH_INDIRECT_CALL: 668935 0.334467%
BRANCH_RETURN: 4273777 2.13689%
BRANCH_OTHER: 0 0%

DRAM PAGES: 1048576
Allocated PAGES: 2008
