
*** ChampSim Multicore Out-of-Order Simulator ***

Warmup Instructions: 50000000
Simulation Instructions: 200000000
Number of CPUs: 1
LLC sets: 2048
LLC ways: 16
Off-chip DRAM Size: 4096 MB Channels: 1 Width: 64-bit Data Rate: 6400 MT/s
CPU 0 runs traces/spec2k17/srv_23.champsimtrace.xz
.xz
BTB has LRU replacement policy
ITLB has LRU replacement policy
DTLB has LRU replacement policy
STLB has LRU replacement policy
L1I has LRU replacement policy
L1D has LRU replacement policy
Initialize SRRIP state for L2C
Initialize DRRIP state for LLC
Heartbeat CPU 0 instructions: 10000002 cycles: 2851994 heartbeat IPC: 3.50632 cumulative IPC: 3.50632 (Simulation time: 0 hr 0 min 37 sec) 
Heartbeat CPU 0 instructions: 20000003 cycles: 5698260 heartbeat IPC: 3.51338 cumulative IPC: 3.50984 (Simulation time: 0 hr 1 min 12 sec) 
Heartbeat CPU 0 instructions: 30000003 cycles: 8545368 heartbeat IPC: 3.51234 cumulative IPC: 3.51067 (Simulation time: 0 hr 1 min 48 sec) 
*** Reached end of trace for Core: 0 Repeating trace: traces/spec2k17/srv_23.champsimtrace.xz
Heartbeat CPU 0 instructions: 40000002 cycles: 11399508 heartbeat IPC: 3.50368 cumulative IPC: 3.50892 (Simulation time: 0 hr 2 min 23 sec) 
Heartbeat CPU 0 instructions: 50000003 cycles: 14258717 heartbeat IPC: 3.49747 cumulative IPC: 3.50663 (Simulation time: 0 hr 2 min 58 sec) 

Warmup complete CPU 0 instructions: 50000003 cycles: 14258717 (Simulation time: 0 hr 2 min 58 sec) 

Heartbeat CPU 0 instructions: 60000000 cycles: 46618639 heartbeat IPC: 0.309024 cumulative IPC: 0.309024 (Simulation time: 0 hr 4 min 1 sec) 
*** Reached end of trace for Core: 0 Repeating trace: traces/spec2k17/srv_23.champsimtrace.xz
Heartbeat CPU 0 instructions: 70000000 cycles: 78940377 heartbeat IPC: 0.309389 cumulative IPC: 0.309207 (Simulation time: 0 hr 4 min 58 sec) 
Heartbeat CPU 0 instructions: 80000001 cycles: 111059076 heartbeat IPC: 0.311345 cumulative IPC: 0.309916 (Simulation time: 0 hr 5 min 52 sec) 
Heartbeat CPU 0 instructions: 90000002 cycles: 143036385 heartbeat IPC: 0.312722 cumulative IPC: 0.310613 (Simulation time: 0 hr 6 min 34 sec) 
*** Reached end of trace for Core: 0 Repeating trace: traces/spec2k17/srv_23.champsimtrace.xz
Heartbeat CPU 0 instructions: 100000000 cycles: 175013413 heartbeat IPC: 0.312724 cumulative IPC: 0.311033 (Simulation time: 0 hr 7 min 18 sec) 
Heartbeat CPU 0 instructions: 110000000 cycles: 206843237 heartbeat IPC: 0.314171 cumulative IPC: 0.311552 (Simulation time: 0 hr 7 min 59 sec) 
Heartbeat CPU 0 instructions: 120000001 cycles: 238743751 heartbeat IPC: 0.313475 cumulative IPC: 0.311825 (Simulation time: 0 hr 8 min 40 sec) 
*** Reached end of trace for Core: 0 Repeating trace: traces/spec2k17/srv_23.champsimtrace.xz
Heartbeat CPU 0 instructions: 130000000 cycles: 270680090 heartbeat IPC: 0.313123 cumulative IPC: 0.311986 (Simulation time: 0 hr 9 min 42 sec) 
Heartbeat CPU 0 instructions: 140000000 cycles: 302514636 heartbeat IPC: 0.314124 cumulative IPC: 0.312223 (Simulation time: 0 hr 10 min 52 sec) 
Heartbeat CPU 0 instructions: 150000003 cycles: 334479430 heartbeat IPC: 0.312844 cumulative IPC: 0.312285 (Simulation time: 0 hr 11 min 58 sec) 
*** Reached end of trace for Core: 0 Repeating trace: traces/spec2k17/srv_23.champsimtrace.xz
Heartbeat CPU 0 instructions: 160000002 cycles: 366355903 heartbeat IPC: 0.313711 cumulative IPC: 0.312414 (Simulation time: 0 hr 13 min 5 sec) 
Heartbeat CPU 0 instructions: 170000001 cycles: 398177352 heartbeat IPC: 0.314253 cumulative IPC: 0.312566 (Simulation time: 0 hr 14 min 18 sec) 
Heartbeat CPU 0 instructions: 180000001 cycles: 430165716 heartbeat IPC: 0.312614 cumulative IPC: 0.31257 (Simulation time: 0 hr 15 min 29 sec) 
*** Reached end of trace for Core: 0 Repeating trace: traces/spec2k17/srv_23.champsimtrace.xz
Heartbeat CPU 0 instructions: 190000001 cycles: 462050805 heartbeat IPC: 0.313626 cumulative IPC: 0.312645 (Simulation time: 0 hr 16 min 30 sec) 
Heartbeat CPU 0 instructions: 200000001 cycles: 493859264 heartbeat IPC: 0.314382 cumulative IPC: 0.31276 (Simulation time: 0 hr 17 min 37 sec) 
Heartbeat CPU 0 instructions: 210000001 cycles: 525832352 heartbeat IPC: 0.312763 cumulative IPC: 0.31276 (Simulation time: 0 hr 18 min 42 sec) 
*** Reached end of trace for Core: 0 Repeating trace: traces/spec2k17/srv_23.champsimtrace.xz
Heartbeat CPU 0 instructions: 220000000 cycles: 557673124 heartbeat IPC: 0.314063 cumulative IPC: 0.312837 (Simulation time: 0 hr 19 min 41 sec) 
Heartbeat CPU 0 instructions: 230000002 cycles: 589506222 heartbeat IPC: 0.314139 cumulative IPC: 0.312909 (Simulation time: 0 hr 20 min 44 sec) 
Heartbeat CPU 0 instructions: 240000001 cycles: 621453478 heartbeat IPC: 0.313016 cumulative IPC: 0.312914 (Simulation time: 0 hr 21 min 45 sec) 
Heartbeat CPU 0 instructions: 250000001 cycles: 653320331 heartbeat IPC: 0.313806 cumulative IPC: 0.312959 (Simulation time: 0 hr 22 min 45 sec) 
Finished CPU 0 instructions: 200000000 cycles: 639061615 cumulative IPC: 0.312959 (Simulation time: 0 hr 22 min 45 sec) 

ChampSim completed all CPUs

Region of Interest Statistics

CPU 0 cumulative IPC: 0.312959 instructions: 200000000 cycles: 639061615
ITLB TOTAL     ACCESS:   35726818  HIT:   33472978  MISS:    2253840  HIT %:    93.6915  MISS %:    6.30854   MPKI: 11.2692
ITLB LOAD TRANSLATION ACCESS:   35726818  HIT:   33472978  MISS:    2253840  HIT %:    93.6915  MISS %:    6.30854   MPKI: 11.2692
ITLB PREFETCH  REQUESTED:          0  ISSUED:          0  USEFUL:          0  USELESS:          0
ITLB USEFUL LOAD PREFETCHES:          0 PREFETCH ISSUED TO LOWER LEVEL:          0  ACCURACY: -nan
ITLB TIMELY PREFETCHES:          0 LATE PREFETCHES: 0 DROPPED PREFETCHES: 0
ITLB PREFETCHES SAME FILL-ORIGIN LEVEL: 0 DIFFERENT FILL-ORIGIN LEVEL: 0
ITLB AVERAGE MISS LATENCY: 9.17361 cycles
ITLB RQ	ACCESS:   41981902	FORWARD:          0	MERGED:    5718367	TO_CACHE:   36263535

DTLB TOTAL     ACCESS:   45844308  HIT:   43816084  MISS:    2028224  HIT %:    95.5758  MISS %:    4.42416   MPKI: 10.1411
DTLB LOAD TRANSLATION ACCESS:   45844308  HIT:   43816084  MISS:    2028224  HIT %:    95.5758  MISS %:    4.42416   MPKI: 10.1411
DTLB PREFETCH  REQUESTED:          0  ISSUED:          0  USEFUL:          0  USELESS:          0
DTLB USEFUL LOAD PREFETCHES:          0 PREFETCH ISSUED TO LOWER LEVEL:          0  ACCURACY: -nan
DTLB TIMELY PREFETCHES:          0 LATE PREFETCHES: 0 DROPPED PREFETCHES: 0
DTLB PREFETCHES SAME FILL-ORIGIN LEVEL: 0 DIFFERENT FILL-ORIGIN LEVEL: 0
DTLB AVERAGE MISS LATENCY: 8.26157 cycles
DTLB RQ	ACCESS:   60561929	FORWARD:          0	MERGED:   14661818	TO_CACHE:   45900111

STLB TOTAL     ACCESS:   23534293  HIT:   23504580  MISS:      29713  HIT %:    99.8737  MISS %:   0.126254   MPKI: 0.148565
STLB LOAD TRANSLATION ACCESS:    4282064  HIT:    4254141  MISS:      27923  HIT %:    99.3479  MISS %:   0.652092   MPKI: 0.139615
STLB TRANSLATION FROM L1D PREFETCHER ACCESS:   19252229  HIT:   19250439  MISS:       1790  HIT %:    99.9907  MISS %: 0.00929762   MPKI: 0.00895
STLB PREFETCH  REQUESTED:          0  ISSUED:          0  USEFUL:       1707  USELESS:         83
STLB USEFUL LOAD PREFETCHES:       1707 PREFETCH ISSUED TO LOWER LEVEL:          0  ACCURACY: inf
STLB TIMELY PREFETCHES:       1707 LATE PREFETCHES: 944 DROPPED PREFETCHES: 291755
STLB PREFETCHES SAME FILL-ORIGIN LEVEL: 0 DIFFERENT FILL-ORIGIN LEVEL: 0
STLB AVERAGE MISS LATENCY: 26.4527 cycles
STLB RQ	ACCESS:   27162204	FORWARD:          0	MERGED:    3334024	TO_CACHE:   23828180

STLB Hit, L1D data hit: 0
STLB Hit, L2C data hit: 0
STLB Hit, LLC data hit: 0
STLB Hit, LLC data miss: 0
STLB STLB hints to L2: 0
L1D TOTAL     ACCESS:   79819725  HIT:   73827404  MISS:    5992321  HIT %:    92.4927  MISS %:    7.50732   MPKI: 29.9616
L1D LOAD      ACCESS:   33997690  HIT:   30708804  MISS:    3288886  HIT %:    90.3261  MISS %:    9.67385   MPKI: 16.4444
L1D RFO       ACCESS:   24854440  HIT:   23748873  MISS:    1105567  HIT %:    95.5518  MISS %:    4.44817   MPKI: 5.52783
L1D PREFETCH  ACCESS:   20967595  HIT:   19369727  MISS:    1597868  HIT %:    92.3793  MISS %:    7.62065   MPKI: 7.98934
AGUS PREFETCH L1 MISS: 0
L1D PREFETCH  REQUESTED:   49393116  ISSUED:   49393077  USEFUL:    1208628  USELESS:     389223
L1D USEFUL LOAD PREFETCHES:    1208628 PREFETCH ISSUED TO LOWER LEVEL:    2386603  ACCURACY: 50.6422
L1D TIMELY PREFETCHES:    1208628 LATE PREFETCHES: 781864 DROPPED PREFETCHES: 320068
L1D PREFETCHES SAME FILL-ORIGIN LEVEL: 2386603 DIFFERENT FILL-ORIGIN LEVEL: 0
L1D AVERAGE MISS LATENCY: 4.70248e+07 cycles
L1D RQ	ACCESS:   46456819	FORWARD:          0	MERGED:   12023182	TO_CACHE:   34103063
L1D WQ	ACCESS:   26602425	FORWARD:     364269	MERGED:     143559	TO_CACHE:   26458866
L1D PQ	ACCESS:   26512937	FORWARD:          0	MERGED:    3599102	TO_CACHE:   22880140

L1D UNIQUE REGIONS ACCESSED: 0
L1D REGIONS CONFLICTS: 0
L1D Cross Page Prefetch Requests: 17793667
L1D Same Page Prefetch Requests: 10511010
L1D ROI Sum of L1D PQ occupancy: 318092810
L1D PREFETCHES PUSHED FROM L2C: 0
L1I TOTAL     ACCESS:   40289699  HIT:   28880881  MISS:   11408818  HIT %:     71.683  MISS %:     28.317   MPKI: 57.0441
L1I LOAD      ACCESS:   40289699  HIT:   28880881  MISS:   11408818  HIT %:     71.683  MISS %:     28.317   MPKI: 57.0441
L1I PREFETCH  REQUESTED:          0  ISSUED:          0  USEFUL:          0  USELESS:          0
L1I USEFUL LOAD PREFETCHES:          0 PREFETCH ISSUED TO LOWER LEVEL:          0  ACCURACY: -nan
L1I TIMELY PREFETCHES:          0 LATE PREFETCHES: 0 DROPPED PREFETCHES: 0
L1I PREFETCHES SAME FILL-ORIGIN LEVEL: 0 DIFFERENT FILL-ORIGIN LEVEL: 0
L1I AVERAGE MISS LATENCY: 15.7866 cycles
L1I RQ	ACCESS:   58343797	FORWARD:          0	MERGED:   16361895	TO_CACHE:   41981902

BTB TOTAL     ACCESS:   30404625  HIT:   17762651  MISS:   12641974  HIT %:    58.4209  MISS %:    41.5791   MPKI: 63.2099
BTB BRANCH_DIRECT_JUMP	ACCESS:    1877215  HIT:    1053364  MISS:     823851
BTB BRANCH_INDIRECT	ACCESS:   12063357  HIT:    7236921  MISS:    4826436
BTB BRANCH_CONDITIONAL	ACCESS:    7180679  HIT:    5895807  MISS:    1284872
BTB BRANCH_DIRECT_CALL	ACCESS:    3903287  HIT:    1841897  MISS:    2061390
BTB BRANCH_INDIRECT_CALL	ACCESS:     738410  HIT:     357792  MISS:     380618
BTB BRANCH_RETURN	ACCESS:    4641677  HIT:    1376870  MISS:    3264807
BTB BRANCH_OTHER ACCESS:          0  HIT:          0  MISS:          0

L2C TOTAL     ACCESS:   20163409  HIT:   19077345  MISS:    1086064  HIT %:    94.6137  MISS %:    5.38631   MPKI: 5.43032
L2C LOAD      ACCESS:   13915715  HIT:   13059899  MISS:     855816  HIT %:      93.85  MISS %:       6.15   MPKI: 4.27908
L2C DATA LOAD MPKI: 1.02852
L2C INSTRUCTION LOAD MPKI: 3.25056
L2C RFO       ACCESS:    1098696  HIT:    1042056  MISS:      56640  HIT %:    94.8448  MISS %:     5.1552   MPKI: 0.2832
L2C PREFETCH  ACCESS:    2386477  HIT:    2265159  MISS:     121318  HIT %:    94.9164  MISS %:    5.08356   MPKI: 0.60659
AGUS PREFETCH L1 MISS: 0
L2C DATA PREFETCH MPKI: 0.60659
L2C INSTRUCTION PREFETCH MPKI: 0
L2C WRITEBACK ACCESS:    2336563  HIT:    2315220  MISS:      21343  HIT %:    99.0866  MISS %:   0.913436   MPKI: 0.106715
L2C LOAD TRANSLATION ACCESS:      28073  HIT:      21992  MISS:       6081  HIT %:    78.3386  MISS %:    21.6614   MPKI: 0.030405
L2C TRANSLATION FROM L1D PREFETCHER ACCESS:     397885  HIT:     373019  MISS:      24866  HIT %:    93.7505  MISS %:    6.24954   MPKI: 0.12433
L2C PREFETCH  REQUESTED:          0  ISSUED:          0  USEFUL:      18460  USELESS:     127833
L2C USEFUL LOAD PREFETCHES:      18460 PREFETCH ISSUED TO LOWER LEVEL:     121318  ACCURACY: 15.2162
L2C TIMELY PREFETCHES:      18460 LATE PREFETCHES: 0 DROPPED PREFETCHES: 0
L2C PREFETCHES SAME FILL-ORIGIN LEVEL: 0 DIFFERENT FILL-ORIGIN LEVEL: 0
L2C AVERAGE MISS LATENCY: 29.9123 cycles
L2C RQ	ACCESS:   15440494	FORWARD:          0	MERGED:          0	TO_CACHE:   15440369
L2C WQ	ACCESS:    2336563	FORWARD:        251	MERGED:          0	TO_CACHE:    2336563
L2C PQ	ACCESS:    2386603	FORWARD:          0	MERGED:          0	TO_CACHE:    2386477

L2C Instructions Evicting Data 198487
L2C Translations Evicting Data 17692
L2C Data Evicting Data 181053
L2C Instructions Evicting Instructions 439602
L2C Translations Evicting Instructions 12069
L2C Data Evicting Instructions 186113
L2C Instructions Evicting Translations 12023
L2C Translations Evicting Translations 1186
L2C Data Evicting Translations 16496
L2C Dense regions hint from L2: 0
PSCL5 TOTAL     ACCESS:     320993  HIT:     320993  MISS:          0  HIT %:        100  MISS %:          0   MPKI: 0
PSCL5 LOAD TRANSLATION ACCESS:      26979  HIT:      26979  MISS:          0  HIT %:        100  MISS %:          0   MPKI: 0
PSCL5 TRANSLATION FROM L1D PREFETCHER ACCESS:     294014  HIT:     294014  MISS:          0  HIT %:        100  MISS %:          0   MPKI: 0
PSCL5 PREFETCH  REQUESTED:          0  ISSUED:          0  USEFUL:          0  USELESS:          0
PSCL5 USEFUL LOAD PREFETCHES:          0 PREFETCH ISSUED TO LOWER LEVEL:          0  ACCURACY: -nan
PSCL5 TIMELY PREFETCHES:          0 LATE PREFETCHES: 0 DROPPED PREFETCHES: 0
PSCL5 PREFETCHES SAME FILL-ORIGIN LEVEL: 0 DIFFERENT FILL-ORIGIN LEVEL: 0

PSCL4 TOTAL     ACCESS:     210274  HIT:     210158  MISS:        116  HIT %:    99.9448  MISS %:  0.0551661   MPKI: 0.00058
PSCL4 LOAD TRANSLATION ACCESS:      24894  HIT:      24778  MISS:        116  HIT %:     99.534  MISS %:   0.465976   MPKI: 0.00058
PSCL4 TRANSLATION FROM L1D PREFETCHER ACCESS:     185380  HIT:     185380  MISS:          0  HIT %:        100  MISS %:          0   MPKI: 0
PSCL4 PREFETCH  REQUESTED:          0  ISSUED:          0  USEFUL:          0  USELESS:          0
PSCL4 USEFUL LOAD PREFETCHES:          0 PREFETCH ISSUED TO LOWER LEVEL:          0  ACCURACY: -nan
PSCL4 TIMELY PREFETCHES:          0 LATE PREFETCHES: 0 DROPPED PREFETCHES: 0
PSCL4 PREFETCHES SAME FILL-ORIGIN LEVEL: 0 DIFFERENT FILL-ORIGIN LEVEL: 0

PSCL3 TOTAL     ACCESS:     234265  HIT:     234149  MISS:        116  HIT %:    99.9505  MISS %:  0.0495166   MPKI: 0.00058
PSCL3 LOAD TRANSLATION ACCESS:      25549  HIT:      25433  MISS:        116  HIT %:     99.546  MISS %:    0.45403   MPKI: 0.00058
PSCL3 TRANSLATION FROM L1D PREFETCHER ACCESS:     208716  HIT:     208716  MISS:          0  HIT %:        100  MISS %:          0   MPKI: 0
PSCL3 PREFETCH  REQUESTED:          0  ISSUED:          0  USEFUL:          0  USELESS:          0
PSCL3 USEFUL LOAD PREFETCHES:          0 PREFETCH ISSUED TO LOWER LEVEL:          0  ACCURACY: -nan
PSCL3 TIMELY PREFETCHES:          0 LATE PREFETCHES: 0 DROPPED PREFETCHES: 0
PSCL3 PREFETCHES SAME FILL-ORIGIN LEVEL: 0 DIFFERENT FILL-ORIGIN LEVEL: 0

PSCL2 TOTAL     ACCESS:     130828  HIT:     129823  MISS:       1005  HIT %:    99.2318  MISS %:   0.768184   MPKI: 0.005025
PSCL2 LOAD TRANSLATION ACCESS:      27086  HIT:      26081  MISS:       1005  HIT %:    96.2896  MISS %:     3.7104   MPKI: 0.005025
PSCL2 TRANSLATION FROM L1D PREFETCHER ACCESS:     103742  HIT:     103742  MISS:          0  HIT %:        100  MISS %:          0   MPKI: 0
PSCL2 PREFETCH  REQUESTED:          0  ISSUED:          0  USEFUL:          0  USELESS:          0
PSCL2 USEFUL LOAD PREFETCHES:          0 PREFETCH ISSUED TO LOWER LEVEL:          0  ACCURACY: -nan
PSCL2 TIMELY PREFETCHES:          0 LATE PREFETCHES: 0 DROPPED PREFETCHES: 0
PSCL2 PREFETCHES SAME FILL-ORIGIN LEVEL: 0 DIFFERENT FILL-ORIGIN LEVEL: 0

LLC TOTAL     ACCESS:    1158125  HIT:    1154689  MISS:       3436  HIT %:    99.7033  MISS %:   0.296686   MPKI: 0.01718
LLC LOAD      ACCESS:     855816  HIT:     854293  MISS:       1523  HIT %:     99.822  MISS %:   0.177959   MPKI: 0.007615
LLC RFO       ACCESS:      56640  HIT:      56411  MISS:        229  HIT %:    99.5957  MISS %:   0.404308   MPKI: 0.001145
LLC PREFETCH  ACCESS:     121318  HIT:     119967  MISS:       1351  HIT %:    98.8864  MISS %:     1.1136   MPKI: 0.006755
AGUS PREFETCH L1 MISS: 0
LLC WRITEBACK ACCESS:      93404  HIT:      93388  MISS:         16  HIT %:    99.9829  MISS %:  0.0171299   MPKI: 8e-05
LLC LOAD TRANSLATION ACCESS:       6081  HIT:       6050  MISS:         31  HIT %:    99.4902  MISS %:   0.509785   MPKI: 0.000155
LLC TRANSLATION FROM L1D PREFETCHER ACCESS:      24866  HIT:      24580  MISS:        286  HIT %:    98.8498  MISS %:    1.15016   MPKI: 0.00143
LLC PREFETCH  REQUESTED:          0  ISSUED:          0  USEFUL:       1803  USELESS:        553
LLC USEFUL LOAD PREFETCHES:       1803 PREFETCH ISSUED TO LOWER LEVEL:       1351  ACCURACY: 133.457
LLC TIMELY PREFETCHES:       1803 LATE PREFETCHES: 0 DROPPED PREFETCHES: 0
LLC PREFETCHES SAME FILL-ORIGIN LEVEL: 0 DIFFERENT FILL-ORIGIN LEVEL: 0
LLC AVERAGE MISS LATENCY: 158.613 cycles
LLC RQ	ACCESS:     943403	FORWARD:          0	MERGED:          0	TO_CACHE:     943403
LLC WQ	ACCESS:      93404	FORWARD:          0	MERGED:          0	TO_CACHE:      93404
LLC PQ	ACCESS:     121318	FORWARD:          0	MERGED:          0	TO_CACHE:     121318

LLC Dense regions hint to LLC: 0

RAW hits: 1431507
Loads Generated: 47888327
Loads sent to L1D: 46456819
Stores Generated: 26602422
Stores sent to L1D: 26602425
Major fault: 0 Minor fault: 1820
Allocated PAGES: 1820
Completed 

DRAM Statistics
 CHANNEL 0
 RQ ROW_BUFFER_HIT:        387  ROW_BUFFER_MISS:       3033
 DBUS_CONGESTED:          1
 WQ ROW_BUFFER_HIT:          9  ROW_BUFFER_MISS:        282  FULL:          0

 AVG_CONGESTED_CYCLE: 7
 All warmup complete: 2
Channel 0 Bank busy for read cycles: 0
Channel 0 Bank busy for write cycles: 0
Channel 0
Rank 0
0banks busy for read cycles: 638603804
0banks busy for write cycles: 237
1banks busy for read cycles: 378320
1banks busy for write cycles: 32272
2banks busy for read cycles: 31080
2banks busy for write cycles: 4246
3banks busy for read cycles: 7554
3banks busy for write cycles: 1016
4banks busy for read cycles: 2209
4banks busy for write cycles: 311
5banks busy for read cycles: 332
5banks busy for write cycles: 131
6banks busy for read cycles: 59
6banks busy for write cycles: 0
7banks busy for read cycles: 45
7banks busy for write cycles: 0
8banks busy for read cycles: 0
8banks busy for write cycles: 0

CPU 0 Branch Prediction Accuracy: 99.8875% MPKI: 0.202445 Average ROB Occupancy at Mispredict: 29.4784
Branch types
NOT_BRANCH: 164016249 82.0081%
BRANCH_DIRECT_JUMP: 1877215 0.938608%
BRANCH_INDIRECT: 12063357 6.03168%
BRANCH_CONDITIONAL: 12759769 6.37988%
BRANCH_DIRECT_CALL: 3903287 1.95164%
BRANCH_INDIRECT_CALL: 738410 0.369205%
BRANCH_RETURN: 4641677 2.32084%
BRANCH_OTHER: 0 0%

DRAM PAGES: 1048576
Allocated PAGES: 1820
