
*** ChampSim Multicore Out-of-Order Simulator ***

Warmup Instructions: 50000000
Simulation Instructions: 200000000
Number of CPUs: 1
LLC sets: 2048
LLC ways: 16
Off-chip DRAM Size: 4096 MB Channels: 1 Width: 64-bit Data Rate: 6400 MT/s
CPU 0 runs traces/spec2k17/srv_62.champsimtrace.xz
.xz
BTB has LRU replacement policy
ITLB has LRU replacement policy
DTLB has LRU replacement policy
STLB has LRU replacement policy
L1I has LRU replacement policy
L1D has LRU replacement policy
Initialize SRRIP state for L2C
Initialize DRRIP state for LLC
Heartbeat CPU 0 instructions: 10000003 cycles: 2772247 heartbeat IPC: 3.60718 cumulative IPC: 3.60718 (Simulation time: 0 hr 0 min 34 sec) 
Heartbeat CPU 0 instructions: 20000002 cycles: 5539348 heartbeat IPC: 3.61389 cumulative IPC: 3.61053 (Simulation time: 0 hr 1 min 6 sec) 
Heartbeat CPU 0 instructions: 30000000 cycles: 8305852 heartbeat IPC: 3.61467 cumulative IPC: 3.61191 (Simulation time: 0 hr 1 min 40 sec) 
*** Reached end of trace for Core: 0 Repeating trace: traces/spec2k17/srv_62.champsimtrace.xz
Heartbeat CPU 0 instructions: 40000003 cycles: 11072916 heartbeat IPC: 3.61394 cumulative IPC: 3.61242 (Simulation time: 0 hr 2 min 9 sec) 
Heartbeat CPU 0 instructions: 50000003 cycles: 13841366 heartbeat IPC: 3.61213 cumulative IPC: 3.61236 (Simulation time: 0 hr 2 min 37 sec) 

Warmup complete CPU 0 instructions: 50000003 cycles: 13841366 (Simulation time: 0 hr 2 min 37 sec) 

Heartbeat CPU 0 instructions: 60000002 cycles: 35744057 heartbeat IPC: 0.456565 cumulative IPC: 0.456565 (Simulation time: 0 hr 3 min 15 sec) 
*** Reached end of trace for Core: 0 Repeating trace: traces/spec2k17/srv_62.champsimtrace.xz
Heartbeat CPU 0 instructions: 70000002 cycles: 57769727 heartbeat IPC: 0.454016 cumulative IPC: 0.455287 (Simulation time: 0 hr 3 min 53 sec) 
Heartbeat CPU 0 instructions: 80000000 cycles: 80011884 heartbeat IPC: 0.449597 cumulative IPC: 0.453374 (Simulation time: 0 hr 4 min 35 sec) 
Heartbeat CPU 0 instructions: 90000000 cycles: 101862053 heartbeat IPC: 0.457662 cumulative IPC: 0.454439 (Simulation time: 0 hr 5 min 12 sec) 
*** Reached end of trace for Core: 0 Repeating trace: traces/spec2k17/srv_62.champsimtrace.xz
Heartbeat CPU 0 instructions: 100000002 cycles: 123530259 heartbeat IPC: 0.461506 cumulative IPC: 0.455835 (Simulation time: 0 hr 5 min 49 sec) 
Heartbeat CPU 0 instructions: 110000000 cycles: 145909392 heartbeat IPC: 0.446845 cumulative IPC: 0.454311 (Simulation time: 0 hr 6 min 26 sec) 
Heartbeat CPU 0 instructions: 120000000 cycles: 167940156 heartbeat IPC: 0.453911 cumulative IPC: 0.454254 (Simulation time: 0 hr 7 min 3 sec) 
*** Reached end of trace for Core: 0 Repeating trace: traces/spec2k17/srv_62.champsimtrace.xz
Heartbeat CPU 0 instructions: 130000002 cycles: 189389232 heartbeat IPC: 0.466221 cumulative IPC: 0.455716 (Simulation time: 0 hr 7 min 40 sec) 
Heartbeat CPU 0 instructions: 140000001 cycles: 211675874 heartbeat IPC: 0.448699 cumulative IPC: 0.454926 (Simulation time: 0 hr 8 min 19 sec) 
Heartbeat CPU 0 instructions: 150000000 cycles: 233824957 heartbeat IPC: 0.451486 cumulative IPC: 0.454579 (Simulation time: 0 hr 9 min 4 sec) 
*** Reached end of trace for Core: 0 Repeating trace: traces/spec2k17/srv_62.champsimtrace.xz
Heartbeat CPU 0 instructions: 160000000 cycles: 255085706 heartbeat IPC: 0.47035 cumulative IPC: 0.455969 (Simulation time: 0 hr 9 min 42 sec) 
Heartbeat CPU 0 instructions: 170000001 cycles: 277181837 heartbeat IPC: 0.452568 cumulative IPC: 0.455684 (Simulation time: 0 hr 10 min 19 sec) 
Heartbeat CPU 0 instructions: 180000001 cycles: 299559116 heartbeat IPC: 0.446882 cumulative IPC: 0.454994 (Simulation time: 0 hr 10 min 57 sec) 
*** Reached end of trace for Core: 0 Repeating trace: traces/spec2k17/srv_62.champsimtrace.xz
Heartbeat CPU 0 instructions: 190000000 cycles: 320814233 heartbeat IPC: 0.470475 cumulative IPC: 0.456066 (Simulation time: 0 hr 11 min 34 sec) 
Heartbeat CPU 0 instructions: 200000002 cycles: 343041096 heartbeat IPC: 0.449906 cumulative IPC: 0.45565 (Simulation time: 0 hr 12 min 13 sec) 
Heartbeat CPU 0 instructions: 210000000 cycles: 365127213 heartbeat IPC: 0.452773 cumulative IPC: 0.45547 (Simulation time: 0 hr 12 min 50 sec) 
*** Reached end of trace for Core: 0 Repeating trace: traces/spec2k17/srv_62.champsimtrace.xz
Heartbeat CPU 0 instructions: 220000000 cycles: 386471607 heartbeat IPC: 0.468507 cumulative IPC: 0.456216 (Simulation time: 0 hr 13 min 27 sec) 
Heartbeat CPU 0 instructions: 230000002 cycles: 408636711 heartbeat IPC: 0.45116 cumulative IPC: 0.455932 (Simulation time: 0 hr 14 min 3 sec) 
Heartbeat CPU 0 instructions: 240000003 cycles: 430471972 heartbeat IPC: 0.457975 cumulative IPC: 0.456039 (Simulation time: 0 hr 14 min 37 sec) 
*** Reached end of trace for Core: 0 Repeating trace: traces/spec2k17/srv_62.champsimtrace.xz
Heartbeat CPU 0 instructions: 250000003 cycles: 452055884 heartbeat IPC: 0.463308 cumulative IPC: 0.456397 (Simulation time: 0 hr 15 min 10 sec) 
Finished CPU 0 instructions: 200000000 cycles: 438214518 cumulative IPC: 0.456397 (Simulation time: 0 hr 15 min 10 sec) 

ChampSim completed all CPUs

Region of Interest Statistics

CPU 0 cumulative IPC: 0.456397 instructions: 200000000 cycles: 438214518
ITLB TOTAL     ACCESS:   31575330  HIT:   30800576  MISS:     774754  HIT %:    97.5463  MISS %:    2.45367   MPKI: 3.87377
ITLB LOAD TRANSLATION ACCESS:   31575330  HIT:   30800576  MISS:     774754  HIT %:    97.5463  MISS %:    2.45367   MPKI: 3.87377
ITLB PREFETCH  REQUESTED:          0  ISSUED:          0  USEFUL:          0  USELESS:          0
ITLB USEFUL LOAD PREFETCHES:          0 PREFETCH ISSUED TO LOWER LEVEL:          0  ACCURACY: -nan
ITLB TIMELY PREFETCHES:          0 LATE PREFETCHES: 0 DROPPED PREFETCHES: 0
ITLB PREFETCHES SAME FILL-ORIGIN LEVEL: 0 DIFFERENT FILL-ORIGIN LEVEL: 0
ITLB AVERAGE MISS LATENCY: 13.7137 cycles
ITLB RQ	ACCESS:   38437606	FORWARD:          0	MERGED:    6667896	TO_CACHE:   31769710

DTLB TOTAL     ACCESS:   37084261  HIT:   34510892  MISS:    2573369  HIT %:    93.0608  MISS %:    6.93925   MPKI: 12.8668
DTLB LOAD TRANSLATION ACCESS:   37084261  HIT:   34510892  MISS:    2573369  HIT %:    93.0608  MISS %:    6.93925   MPKI: 12.8668
DTLB PREFETCH  REQUESTED:          0  ISSUED:          0  USEFUL:          0  USELESS:          0
DTLB USEFUL LOAD PREFETCHES:          0 PREFETCH ISSUED TO LOWER LEVEL:          0  ACCURACY: -nan
DTLB TIMELY PREFETCHES:          0 LATE PREFETCHES: 0 DROPPED PREFETCHES: 0
DTLB PREFETCHES SAME FILL-ORIGIN LEVEL: 0 DIFFERENT FILL-ORIGIN LEVEL: 0
DTLB AVERAGE MISS LATENCY: 13.0836 cycles
DTLB RQ	ACCESS:   47627842	FORWARD:          0	MERGED:   10407238	TO_CACHE:   37220604

STLB TOTAL     ACCESS:   11107285  HIT:   10763608  MISS:     343677  HIT %:    96.9058  MISS %:    3.09416   MPKI: 1.71839
STLB LOAD TRANSLATION ACCESS:    3348123  HIT:    3013822  MISS:     334301  HIT %:    90.0153  MISS %:    9.98473   MPKI: 1.67151
STLB TRANSLATION FROM L1D PREFETCHER ACCESS:    7759162  HIT:    7749786  MISS:       9376  HIT %:    99.8792  MISS %:   0.120838   MPKI: 0.04688
STLB PREFETCH  REQUESTED:          0  ISSUED:          0  USEFUL:       7961  USELESS:       1408
STLB USEFUL LOAD PREFETCHES:       7961 PREFETCH ISSUED TO LOWER LEVEL:          0  ACCURACY: inf
STLB TIMELY PREFETCHES:       7961 LATE PREFETCHES: 2241 DROPPED PREFETCHES: 218230
STLB PREFETCHES SAME FILL-ORIGIN LEVEL: 0 DIFFERENT FILL-ORIGIN LEVEL: 0
STLB AVERAGE MISS LATENCY: 44.33 cycles
STLB RQ	ACCESS:   12836913	FORWARD:          0	MERGED:    1507508	TO_CACHE:   11329405

STLB Hit, L1D data hit: 0
STLB Hit, L2C data hit: 0
STLB Hit, LLC data hit: 0
STLB Hit, LLC data miss: 0
STLB STLB hints to L2: 0
L1D TOTAL     ACCESS:   56194894  HIT:   53660059  MISS:    2534835  HIT %:    95.4892  MISS %:    4.51079   MPKI: 12.6742
L1D LOAD      ACCESS:   27531613  HIT:   25529848  MISS:    2001765  HIT %:    92.7292  MISS %:    7.27079   MPKI: 10.0088
L1D RFO       ACCESS:   19580420  HIT:   19250990  MISS:     329430  HIT %:    98.3176  MISS %:    1.68245   MPKI: 1.64715
L1D PREFETCH  ACCESS:    9082861  HIT:    8879221  MISS:     203640  HIT %:     97.758  MISS %:    2.24202   MPKI: 1.0182
AGUS PREFETCH L1 MISS: 0
L1D PREFETCH  REQUESTED:   21452722  ISSUED:   21452090  USEFUL:     132709  USELESS:      70922
L1D USEFUL LOAD PREFETCHES:     132709 PREFETCH ISSUED TO LOWER LEVEL:     268970  ACCURACY: 49.3397
L1D TIMELY PREFETCHES:     132709 LATE PREFETCHES: 65041 DROPPED PREFETCHES: 224523
L1D PREFETCHES SAME FILL-ORIGIN LEVEL: 268970 DIFFERENT FILL-ORIGIN LEVEL: 0
L1D AVERAGE MISS LATENCY: 7.89771e+06 cycles
L1D RQ	ACCESS:   42161189	FORWARD:          0	MERGED:   14266266	TO_CACHE:   27654113
L1D WQ	ACCESS:   20274529	FORWARD:     293652	MERGED:     300800	TO_CACHE:   19973729
L1D PQ	ACCESS:   11963300	FORWARD:          0	MERGED:    2421668	TO_CACHE:    9488790

L1D UNIQUE REGIONS ACCESSED: 0
L1D REGIONS CONFLICTS: 0
L1D Cross Page Prefetch Requests: 8367350
L1D Same Page Prefetch Requests: 5438646
L1D ROI Sum of L1D PQ occupancy: 139676360
L1D PREFETCHES PUSHED FROM L2C: 0
L1I TOTAL     ACCESS:   36636963  HIT:   31507681  MISS:    5129282  HIT %:    85.9997  MISS %:    14.0003   MPKI: 25.6464
L1I LOAD      ACCESS:   36636963  HIT:   31507681  MISS:    5129282  HIT %:    85.9997  MISS %:    14.0003   MPKI: 25.6464
L1I PREFETCH  REQUESTED:          0  ISSUED:          0  USEFUL:          0  USELESS:          0
L1I USEFUL LOAD PREFETCHES:          0 PREFETCH ISSUED TO LOWER LEVEL:          0  ACCURACY: -nan
L1I TIMELY PREFETCHES:          0 LATE PREFETCHES: 0 DROPPED PREFETCHES: 0
L1I PREFETCHES SAME FILL-ORIGIN LEVEL: 0 DIFFERENT FILL-ORIGIN LEVEL: 0
L1I AVERAGE MISS LATENCY: 25.1876 cycles
L1I RQ	ACCESS:   57312518	FORWARD:          0	MERGED:   18874912	TO_CACHE:   38437606

BTB TOTAL     ACCESS:   22279888  HIT:   17885763  MISS:    4394125  HIT %:    80.2776  MISS %:    19.7224   MPKI: 21.9706
BTB BRANCH_DIRECT_JUMP	ACCESS:    1742966  HIT:    1496509  MISS:     246457
BTB BRANCH_INDIRECT	ACCESS:    9461254  HIT:    7317397  MISS:    2143857
BTB BRANCH_CONDITIONAL	ACCESS:    4743514  HIT:    4337322  MISS:     406192
BTB BRANCH_DIRECT_CALL	ACCESS:    2483118  HIT:    2001034  MISS:     482084
BTB BRANCH_INDIRECT_CALL	ACCESS:     682660  HIT:     643233  MISS:      39427
BTB BRANCH_RETURN	ACCESS:    3166376  HIT:    2090268  MISS:    1076108
BTB BRANCH_OTHER ACCESS:          0  HIT:          0  MISS:          0

L2C TOTAL     ACCESS:    9403612  HIT:    6249088  MISS:    3154524  HIT %:    66.4541  MISS %:    33.5459   MPKI: 15.7726
L2C LOAD      ACCESS:    7065914  HIT:    4376213  MISS:    2689701  HIT %:    61.9341  MISS %:    38.0659   MPKI: 13.4485
L2C DATA LOAD MPKI: 4.29241
L2C INSTRUCTION LOAD MPKI: 9.1561
L2C RFO       ACCESS:     329141  HIT:     195257  MISS:     133884  HIT %:    59.3232  MISS %:    40.6768   MPKI: 0.66942
L2C PREFETCH  ACCESS:     268887  HIT:     187213  MISS:      81674  HIT %:    69.6252  MISS %:    30.3748   MPKI: 0.40837
AGUS PREFETCH L1 MISS: 0
L2C DATA PREFETCH MPKI: 0.40837
L2C INSTRUCTION PREFETCH MPKI: 0
L2C WRITEBACK ACCESS:    1017887  HIT:     968601  MISS:      49286  HIT %:     95.158  MISS %:    4.84199   MPKI: 0.24643
L2C LOAD TRANSLATION ACCESS:     437301  HIT:     270112  MISS:     167189  HIT %:     61.768  MISS %:     38.232   MPKI: 0.835945
L2C TRANSLATION FROM L1D PREFETCHER ACCESS:     284482  HIT:     251692  MISS:      32790  HIT %:    88.4738  MISS %:    11.5262   MPKI: 0.16395
L2C PREFETCH  REQUESTED:          0  ISSUED:          0  USEFUL:      26646  USELESS:      87672
L2C USEFUL LOAD PREFETCHES:      26646 PREFETCH ISSUED TO LOWER LEVEL:      81674  ACCURACY: 32.6248
L2C TIMELY PREFETCHES:      26646 LATE PREFETCHES: 0 DROPPED PREFETCHES: 0
L2C PREFETCHES SAME FILL-ORIGIN LEVEL: 0 DIFFERENT FILL-ORIGIN LEVEL: 0
L2C AVERAGE MISS LATENCY: 44.0522 cycles
L2C RQ	ACCESS:    8116930	FORWARD:          0	MERGED:          0	TO_CACHE:    8116838
L2C WQ	ACCESS:    1017887	FORWARD:        175	MERGED:          0	TO_CACHE:    1017887
L2C PQ	ACCESS:     268970	FORWARD:          0	MERGED:          0	TO_CACHE:     268887

L2C Instructions Evicting Data 641799
L2C Translations Evicting Data 71218
L2C Data Evicting Data 392820
L2C Instructions Evicting Instructions 1075864
L2C Translations Evicting Instructions 114894
L2C Data Evicting Instructions 611357
L2C Instructions Evicting Translations 113556
L2C Translations Evicting Translations 13867
L2C Data Evicting Translations 69863
L2C Dense regions hint from L2: 0
PSCL5 TOTAL     ACCESS:     550465  HIT:     550465  MISS:          0  HIT %:        100  MISS %:          0   MPKI: 0
PSCL5 LOAD TRANSLATION ACCESS:     332060  HIT:     332060  MISS:          0  HIT %:        100  MISS %:          0   MPKI: 0
PSCL5 TRANSLATION FROM L1D PREFETCHER ACCESS:     218405  HIT:     218405  MISS:          0  HIT %:        100  MISS %:          0   MPKI: 0
PSCL5 PREFETCH  REQUESTED:          0  ISSUED:          0  USEFUL:          0  USELESS:          0
PSCL5 USEFUL LOAD PREFETCHES:          0 PREFETCH ISSUED TO LOWER LEVEL:          0  ACCURACY: -nan
PSCL5 TIMELY PREFETCHES:          0 LATE PREFETCHES: 0 DROPPED PREFETCHES: 0
PSCL5 PREFETCHES SAME FILL-ORIGIN LEVEL: 0 DIFFERENT FILL-ORIGIN LEVEL: 0

PSCL4 TOTAL     ACCESS:     448389  HIT:     448080  MISS:        309  HIT %:    99.9311  MISS %:  0.0689134   MPKI: 0.001545
PSCL4 LOAD TRANSLATION ACCESS:     280672  HIT:     280363  MISS:        309  HIT %:    99.8899  MISS %:   0.110093   MPKI: 0.001545
PSCL4 TRANSLATION FROM L1D PREFETCHER ACCESS:     167717  HIT:     167717  MISS:          0  HIT %:        100  MISS %:          0   MPKI: 0
PSCL4 PREFETCH  REQUESTED:          0  ISSUED:          0  USEFUL:          0  USELESS:          0
PSCL4 USEFUL LOAD PREFETCHES:          0 PREFETCH ISSUED TO LOWER LEVEL:          0  ACCURACY: -nan
PSCL4 TIMELY PREFETCHES:          0 LATE PREFETCHES: 0 DROPPED PREFETCHES: 0
PSCL4 PREFETCHES SAME FILL-ORIGIN LEVEL: 0 DIFFERENT FILL-ORIGIN LEVEL: 0

PSCL3 TOTAL     ACCESS:     506291  HIT:     505366  MISS:        925  HIT %:    99.8173  MISS %:   0.182701   MPKI: 0.004625
PSCL3 LOAD TRANSLATION ACCESS:     330952  HIT:     330027  MISS:        925  HIT %:    99.7205  MISS %:   0.279497   MPKI: 0.004625
PSCL3 TRANSLATION FROM L1D PREFETCHER ACCESS:     175339  HIT:     175339  MISS:          0  HIT %:        100  MISS %:          0   MPKI: 0
PSCL3 PREFETCH  REQUESTED:          0  ISSUED:          0  USEFUL:          0  USELESS:          0
PSCL3 USEFUL LOAD PREFETCHES:          0 PREFETCH ISSUED TO LOWER LEVEL:          0  ACCURACY: -nan
PSCL3 TIMELY PREFETCHES:          0 LATE PREFETCHES: 0 DROPPED PREFETCHES: 0
PSCL3 PREFETCHES SAME FILL-ORIGIN LEVEL: 0 DIFFERENT FILL-ORIGIN LEVEL: 0

PSCL2 TOTAL     ACCESS:     369068  HIT:     259771  MISS:     109297  HIT %:    70.3857  MISS %:    29.6143   MPKI: 0.546485
PSCL2 LOAD TRANSLATION ACCESS:     337328  HIT:     228031  MISS:     109297  HIT %:    67.5992  MISS %:    32.4008   MPKI: 0.546485
PSCL2 TRANSLATION FROM L1D PREFETCHER ACCESS:      31740  HIT:      31740  MISS:          0  HIT %:        100  MISS %:          0   MPKI: 0
PSCL2 PREFETCH  REQUESTED:          0  ISSUED:          0  USEFUL:          0  USELESS:          0
PSCL2 USEFUL LOAD PREFETCHES:          0 PREFETCH ISSUED TO LOWER LEVEL:          0  ACCURACY: -nan
PSCL2 TIMELY PREFETCHES:          0 LATE PREFETCHES: 0 DROPPED PREFETCHES: 0
PSCL2 PREFETCHES SAME FILL-ORIGIN LEVEL: 0 DIFFERENT FILL-ORIGIN LEVEL: 0

LLC TOTAL     ACCESS:    3513227  HIT:    3210621  MISS:     302606  HIT %:    91.3867  MISS %:    8.61333   MPKI: 1.51303
LLC LOAD      ACCESS:    2689696  HIT:    2456405  MISS:     233291  HIT %:    91.3265  MISS %:    8.67351   MPKI: 1.16646
LLC RFO       ACCESS:     133884  HIT:      87793  MISS:      46091  HIT %:    65.5739  MISS %:    34.4261   MPKI: 0.230455
LLC PREFETCH  ACCESS:      81673  HIT:      72464  MISS:       9209  HIT %:    88.7245  MISS %:    11.2755   MPKI: 0.046045
AGUS PREFETCH L1 MISS: 0
LLC WRITEBACK ACCESS:     407995  HIT:     405892  MISS:       2103  HIT %:    99.4846  MISS %:   0.515447   MPKI: 0.010515
LLC LOAD TRANSLATION ACCESS:     167189  HIT:     156817  MISS:      10372  HIT %:    93.7962  MISS %:    6.20376   MPKI: 0.05186
LLC TRANSLATION FROM L1D PREFETCHER ACCESS:      32790  HIT:      31250  MISS:       1540  HIT %:    95.3034  MISS %:    4.69655   MPKI: 0.0077
LLC PREFETCH  REQUESTED:          0  ISSUED:          0  USEFUL:       1756  USELESS:       8747
LLC USEFUL LOAD PREFETCHES:       1756 PREFETCH ISSUED TO LOWER LEVEL:       9209  ACCURACY: 19.0683
LLC TIMELY PREFETCHES:       1756 LATE PREFETCHES: 0 DROPPED PREFETCHES: 0
LLC PREFETCHES SAME FILL-ORIGIN LEVEL: 0 DIFFERENT FILL-ORIGIN LEVEL: 0
LLC AVERAGE MISS LATENCY: 151.37 cycles
LLC RQ	ACCESS:    3023564	FORWARD:          0	MERGED:          0	TO_CACHE:    3023559
LLC WQ	ACCESS:     407995	FORWARD:          6	MERGED:          0	TO_CACHE:     407995
LLC PQ	ACCESS:      81674	FORWARD:          0	MERGED:          0	TO_CACHE:      81673

LLC Dense regions hint to LLC: 0

RAW hits: 2793298
Loads Generated: 44954488
Loads sent to L1D: 42161189
Stores Generated: 20274529
Stores sent to L1D: 20274529
Major fault: 0 Minor fault: 5946
Allocated PAGES: 5946
Completed 

DRAM Statistics
 CHANNEL 0
 RQ ROW_BUFFER_HIT:      57932  ROW_BUFFER_MISS:     242571
 DBUS_CONGESTED:        180
 WQ ROW_BUFFER_HIT:      30667  ROW_BUFFER_MISS:     184745  FULL:          0

 AVG_CONGESTED_CYCLE: 4
 All warmup complete: 2
Channel 0 Bank busy for read cycles: 0
Channel 0 Bank busy for write cycles: 0
Channel 0
Rank 0
0banks busy for read cycles: 381016453
0banks busy for write cycles: 122030
1banks busy for read cycles: 27862954
1banks busy for write cycles: 17131273
2banks busy for read cycles: 3743412
2banks busy for write cycles: 4069478
3banks busy for read cycles: 505226
3banks busy for write cycles: 1391125
4banks busy for read cycles: 201560
4banks busy for write cycles: 695256
5banks busy for read cycles: 93114
5banks busy for write cycles: 401739
6banks busy for read cycles: 63573
6banks busy for write cycles: 310701
7banks busy for read cycles: 48870
7banks busy for write cycles: 253737
8banks busy for read cycles: 52800
8banks busy for write cycles: 251218

CPU 0 Branch Prediction Accuracy: 99.8413% MPKI: 0.28434 Average ROB Occupancy at Mispredict: 45.614
Branch types
NOT_BRANCH: 164167961 82.084%
BRANCH_DIRECT_JUMP: 1742966 0.871483%
BRANCH_INDIRECT: 9461254 4.73063%
BRANCH_CONDITIONAL: 18295371 9.14769%
BRANCH_DIRECT_CALL: 2483118 1.24156%
BRANCH_INDIRECT_CALL: 682660 0.34133%
BRANCH_RETURN: 3166376 1.58319%
BRANCH_OTHER: 0 0%

DRAM PAGES: 1048576
Allocated PAGES: 5946
