
*** ChampSim Multicore Out-of-Order Simulator ***

Warmup Instructions: 50000000
Simulation Instructions: 200000000
Number of CPUs: 1
LLC sets: 2048
LLC ways: 16
Off-chip DRAM Size: 4096 MB Channels: 1 Width: 64-bit Data Rate: 6400 MT/s
CPU 0 runs traces/spec2k17/srv_67.champsimtrace.xz
.xz
BTB has LRU replacement policy
ITLB has LRU replacement policy
DTLB has LRU replacement policy
STLB has LRU replacement policy
L1I has LRU replacement policy
L1D has LRU replacement policy
Initialize SRRIP state for L2C
Initialize DRRIP state for LLC
Heartbeat CPU 0 instructions: 10000001 cycles: 2765258 heartbeat IPC: 3.6163 cumulative IPC: 3.6163 (Simulation time: 0 hr 0 min 37 sec) 
Heartbeat CPU 0 instructions: 20000002 cycles: 5527017 heartbeat IPC: 3.62088 cumulative IPC: 3.61859 (Simulation time: 0 hr 1 min 13 sec) 
Heartbeat CPU 0 instructions: 30000003 cycles: 8290421 heartbeat IPC: 3.61873 cumulative IPC: 3.61863 (Simulation time: 0 hr 1 min 42 sec) 
*** Reached end of trace for Core: 0 Repeating trace: traces/spec2k17/srv_67.champsimtrace.xz
Heartbeat CPU 0 instructions: 40000003 cycles: 11052634 heartbeat IPC: 3.62029 cumulative IPC: 3.61905 (Simulation time: 0 hr 2 min 6 sec) 
Heartbeat CPU 0 instructions: 50000003 cycles: 13817467 heartbeat IPC: 3.61685 cumulative IPC: 3.61861 (Simulation time: 0 hr 2 min 31 sec) 

Warmup complete CPU 0 instructions: 50000003 cycles: 13817467 (Simulation time: 0 hr 2 min 31 sec) 

Heartbeat CPU 0 instructions: 60000001 cycles: 35557817 heartbeat IPC: 0.459974 cumulative IPC: 0.459974 (Simulation time: 0 hr 3 min 28 sec) 
*** Reached end of trace for Core: 0 Repeating trace: traces/spec2k17/srv_67.champsimtrace.xz
Heartbeat CPU 0 instructions: 70000003 cycles: 56768165 heartbeat IPC: 0.471468 cumulative IPC: 0.46565 (Simulation time: 0 hr 4 min 6 sec) 
Heartbeat CPU 0 instructions: 80000001 cycles: 78424675 heartbeat IPC: 0.461755 cumulative IPC: 0.464344 (Simulation time: 0 hr 4 min 44 sec) 
Heartbeat CPU 0 instructions: 90000001 cycles: 99908694 heartbeat IPC: 0.465462 cumulative IPC: 0.464623 (Simulation time: 0 hr 5 min 21 sec) 
*** Reached end of trace for Core: 0 Repeating trace: traces/spec2k17/srv_67.champsimtrace.xz
Heartbeat CPU 0 instructions: 100000003 cycles: 121171655 heartbeat IPC: 0.470301 cumulative IPC: 0.465748 (Simulation time: 0 hr 5 min 58 sec) 
Heartbeat CPU 0 instructions: 110000000 cycles: 142838334 heartbeat IPC: 0.461538 cumulative IPC: 0.465041 (Simulation time: 0 hr 6 min 35 sec) 
Heartbeat CPU 0 instructions: 120000000 cycles: 164300084 heartbeat IPC: 0.465945 cumulative IPC: 0.46517 (Simulation time: 0 hr 7 min 12 sec) 
*** Reached end of trace for Core: 0 Repeating trace: traces/spec2k17/srv_67.champsimtrace.xz
Heartbeat CPU 0 instructions: 130000001 cycles: 185618849 heartbeat IPC: 0.46907 cumulative IPC: 0.465654 (Simulation time: 0 hr 7 min 48 sec) 
Heartbeat CPU 0 instructions: 140000000 cycles: 207384534 heartbeat IPC: 0.459439 cumulative IPC: 0.464955 (Simulation time: 0 hr 8 min 26 sec) 
Heartbeat CPU 0 instructions: 150000002 cycles: 228463217 heartbeat IPC: 0.474413 cumulative IPC: 0.465884 (Simulation time: 0 hr 9 min 4 sec) 
*** Reached end of trace for Core: 0 Repeating trace: traces/spec2k17/srv_67.champsimtrace.xz
Heartbeat CPU 0 instructions: 160000000 cycles: 249933868 heartbeat IPC: 0.465752 cumulative IPC: 0.465872 (Simulation time: 0 hr 9 min 42 sec) 
Heartbeat CPU 0 instructions: 170000001 cycles: 271713434 heartbeat IPC: 0.459146 cumulative IPC: 0.465304 (Simulation time: 0 hr 10 min 20 sec) 
Heartbeat CPU 0 instructions: 180000001 cycles: 292833844 heartbeat IPC: 0.473476 cumulative IPC: 0.465922 (Simulation time: 0 hr 10 min 57 sec) 
*** Reached end of trace for Core: 0 Repeating trace: traces/spec2k17/srv_67.champsimtrace.xz
Heartbeat CPU 0 instructions: 190000000 cycles: 314137747 heartbeat IPC: 0.469398 cumulative IPC: 0.466169 (Simulation time: 0 hr 11 min 34 sec) 
Heartbeat CPU 0 instructions: 200000001 cycles: 335742153 heartbeat IPC: 0.462869 cumulative IPC: 0.465947 (Simulation time: 0 hr 12 min 14 sec) 
Heartbeat CPU 0 instructions: 210000003 cycles: 357046485 heartbeat IPC: 0.469388 cumulative IPC: 0.466161 (Simulation time: 0 hr 12 min 51 sec) 
*** Reached end of trace for Core: 0 Repeating trace: traces/spec2k17/srv_67.champsimtrace.xz
Heartbeat CPU 0 instructions: 220000000 cycles: 378240233 heartbeat IPC: 0.471837 cumulative IPC: 0.466491 (Simulation time: 0 hr 13 min 27 sec) 
Heartbeat CPU 0 instructions: 230000000 cycles: 399778611 heartbeat IPC: 0.464288 cumulative IPC: 0.466368 (Simulation time: 0 hr 14 min 1 sec) 
Heartbeat CPU 0 instructions: 240000001 cycles: 421217110 heartbeat IPC: 0.466451 cumulative IPC: 0.466373 (Simulation time: 0 hr 14 min 34 sec) 
*** Reached end of trace for Core: 0 Repeating trace: traces/spec2k17/srv_67.champsimtrace.xz
Heartbeat CPU 0 instructions: 250000003 cycles: 442368145 heartbeat IPC: 0.47279 cumulative IPC: 0.466689 (Simulation time: 0 hr 15 min 4 sec) 
Finished CPU 0 instructions: 200000000 cycles: 428550678 cumulative IPC: 0.466689 (Simulation time: 0 hr 15 min 4 sec) 

ChampSim completed all CPUs

Region of Interest Statistics

CPU 0 cumulative IPC: 0.466689 instructions: 200000000 cycles: 428550678
ITLB TOTAL     ACCESS:   31349588  HIT:   30556451  MISS:     793137  HIT %:      97.47  MISS %:    2.52998   MPKI: 3.96569
ITLB LOAD TRANSLATION ACCESS:   31349588  HIT:   30556451  MISS:     793137  HIT %:      97.47  MISS %:    2.52998   MPKI: 3.96569
ITLB PREFETCH  REQUESTED:          0  ISSUED:          0  USEFUL:          0  USELESS:          0
ITLB USEFUL LOAD PREFETCHES:          0 PREFETCH ISSUED TO LOWER LEVEL:          0  ACCURACY: -nan
ITLB TIMELY PREFETCHES:          0 LATE PREFETCHES: 0 DROPPED PREFETCHES: 0
ITLB PREFETCHES SAME FILL-ORIGIN LEVEL: 0 DIFFERENT FILL-ORIGIN LEVEL: 0
ITLB AVERAGE MISS LATENCY: 13.8405 cycles
ITLB RQ	ACCESS:   38247379	FORWARD:          0	MERGED:    6703879	TO_CACHE:   31543500

DTLB TOTAL     ACCESS:   36983931  HIT:   34398092  MISS:    2585839  HIT %:    93.0082  MISS %:    6.99179   MPKI: 12.9292
DTLB LOAD TRANSLATION ACCESS:   36983931  HIT:   34398092  MISS:    2585839  HIT %:    93.0082  MISS %:    6.99179   MPKI: 12.9292
DTLB PREFETCH  REQUESTED:          0  ISSUED:          0  USEFUL:          0  USELESS:          0
DTLB USEFUL LOAD PREFETCHES:          0 PREFETCH ISSUED TO LOWER LEVEL:          0  ACCURACY: -nan
DTLB TIMELY PREFETCHES:          0 LATE PREFETCHES: 0 DROPPED PREFETCHES: 0
DTLB PREFETCHES SAME FILL-ORIGIN LEVEL: 0 DIFFERENT FILL-ORIGIN LEVEL: 0
DTLB AVERAGE MISS LATENCY: 12.8864 cycles
DTLB RQ	ACCESS:   47483161	FORWARD:          0	MERGED:   10367892	TO_CACHE:   37115269

STLB TOTAL     ACCESS:   11024879  HIT:   10693688  MISS:     331191  HIT %:     96.996  MISS %:    3.00403   MPKI: 1.65596
STLB LOAD TRANSLATION ACCESS:    3378976  HIT:    3056718  MISS:     322258  HIT %:    90.4629  MISS %:    9.53715   MPKI: 1.61129
STLB TRANSLATION FROM L1D PREFETCHER ACCESS:    7645903  HIT:    7636970  MISS:       8933  HIT %:    99.8832  MISS %:   0.116834   MPKI: 0.044665
STLB PREFETCH  REQUESTED:          0  ISSUED:          0  USEFUL:       7374  USELESS:       1552
STLB USEFUL LOAD PREFETCHES:       7374 PREFETCH ISSUED TO LOWER LEVEL:          0  ACCURACY: inf
STLB TIMELY PREFETCHES:       7374 LATE PREFETCHES: 2205 DROPPED PREFETCHES: 281288
STLB PREFETCHES SAME FILL-ORIGIN LEVEL: 0 DIFFERENT FILL-ORIGIN LEVEL: 0
STLB AVERAGE MISS LATENCY: 45.4822 cycles
STLB RQ	ACCESS:   12877453	FORWARD:          0	MERGED:    1567820	TO_CACHE:   11309633

STLB Hit, L1D data hit: 0
STLB Hit, L2C data hit: 0
STLB Hit, LLC data hit: 0
STLB Hit, LLC data miss: 0
STLB STLB hints to L2: 0
L1D TOTAL     ACCESS:   55988736  HIT:   53481984  MISS:    2506752  HIT %:    95.5228  MISS %:    4.47724   MPKI: 12.5338
L1D LOAD      ACCESS:   27357374  HIT:   25375342  MISS:    1982032  HIT %:     92.755  MISS %:    7.24496   MPKI: 9.91016
L1D RFO       ACCESS:   19597229  HIT:   19275260  MISS:     321969  HIT %:    98.3571  MISS %:    1.64293   MPKI: 1.60984
L1D PREFETCH  ACCESS:    9034133  HIT:    8831382  MISS:     202751  HIT %:    97.7557  MISS %:    2.24428   MPKI: 1.01375
AGUS PREFETCH L1 MISS: 0
L1D PREFETCH  REQUESTED:   21274321  ISSUED:   21273670  USEFUL:     127418  USELESS:      75314
L1D USEFUL LOAD PREFETCHES:     127418 PREFETCH ISSUED TO LOWER LEVEL:     263816  ACCURACY: 48.2981
L1D TIMELY PREFETCHES:     127418 LATE PREFETCHES: 60897 DROPPED PREFETCHES: 294514
L1D PREFETCHES SAME FILL-ORIGIN LEVEL: 263816 DIFFERENT FILL-ORIGIN LEVEL: 0
L1D AVERAGE MISS LATENCY: 7.2183e+06 cycles
L1D RQ	ACCESS:   42029883	FORWARD:          0	MERGED:   14296509	TO_CACHE:   27487334
L1D WQ	ACCESS:   20323448	FORWARD:     283383	MERGED:     327621	TO_CACHE:   19995827
L1D PQ	ACCESS:   11775193	FORWARD:          0	MERGED:    2239373	TO_CACHE:    9498477

L1D UNIQUE REGIONS ACCESSED: 0
L1D REGIONS CONFLICTS: 0
L1D Cross Page Prefetch Requests: 8283999
L1D Same Page Prefetch Requests: 5309080
L1D ROI Sum of L1D PQ occupancy: 142424644
L1D PREFETCHES PUSHED FROM L2C: 0
L1I TOTAL     ACCESS:   36474970  HIT:   31453209  MISS:    5021761  HIT %:    86.2323  MISS %:    13.7677   MPKI: 25.1088
L1I LOAD      ACCESS:   36474970  HIT:   31453209  MISS:    5021761  HIT %:    86.2323  MISS %:    13.7677   MPKI: 25.1088
L1I PREFETCH  REQUESTED:          0  ISSUED:          0  USEFUL:          0  USELESS:          0
L1I USEFUL LOAD PREFETCHES:          0 PREFETCH ISSUED TO LOWER LEVEL:          0  ACCURACY: -nan
L1I TIMELY PREFETCHES:          0 LATE PREFETCHES: 0 DROPPED PREFETCHES: 0
L1I PREFETCHES SAME FILL-ORIGIN LEVEL: 0 DIFFERENT FILL-ORIGIN LEVEL: 0
L1I AVERAGE MISS LATENCY: 25.0493 cycles
L1I RQ	ACCESS:   57198277	FORWARD:          0	MERGED:   18950898	TO_CACHE:   38247379

BTB TOTAL     ACCESS:   22385295  HIT:   18261967  MISS:    4123328  HIT %:    81.5802  MISS %:    18.4198   MPKI: 20.6166
BTB BRANCH_DIRECT_JUMP	ACCESS:    1763864  HIT:    1523664  MISS:     240200
BTB BRANCH_INDIRECT	ACCESS:    9441713  HIT:    7464419  MISS:    1977294
BTB BRANCH_CONDITIONAL	ACCESS:    4809987  HIT:    4436732  MISS:     373255
BTB BRANCH_DIRECT_CALL	ACCESS:    2503051  HIT:    2063439  MISS:     439612
BTB BRANCH_INDIRECT_CALL	ACCESS:     681117  HIT:     639848  MISS:      41269
BTB BRANCH_RETURN	ACCESS:    3185563  HIT:    2133865  MISS:    1051698
BTB BRANCH_OTHER ACCESS:          0  HIT:          0  MISS:          0

L2C TOTAL     ACCESS:    9324404  HIT:    6286841  MISS:    3037563  HIT %:    67.4235  MISS %:    32.5765   MPKI: 15.1878
L2C LOAD      ACCESS:    6942853  HIT:    4368383  MISS:    2574470  HIT %:    62.9191  MISS %:    37.0809   MPKI: 12.8724
L2C DATA LOAD MPKI: 4.22048
L2C INSTRUCTION LOAD MPKI: 8.65188
L2C RFO       ACCESS:     321797  HIT:     186425  MISS:     135372  HIT %:    57.9325  MISS %:    42.0675   MPKI: 0.67686
L2C PREFETCH  ACCESS:     263785  HIT:     179996  MISS:      83789  HIT %:    68.2359  MISS %:    31.7641   MPKI: 0.418945
AGUS PREFETCH L1 MISS: 0
L2C DATA PREFETCH MPKI: 0.418945
L2C INSTRUCTION PREFETCH MPKI: 0
L2C WRITEBACK ACCESS:    1001187  HIT:     949807  MISS:      51380  HIT %:    94.8681  MISS %:    5.13191   MPKI: 0.2569
L2C LOAD TRANSLATION ACCESS:     424553  HIT:     260709  MISS:     163844  HIT %:    61.4079  MISS %:    38.5921   MPKI: 0.81922
L2C TRANSLATION FROM L1D PREFETCHER ACCESS:     370229  HIT:     341521  MISS:      28708  HIT %:    92.2459  MISS %:    7.75412   MPKI: 0.14354
L2C PREFETCH  REQUESTED:          0  ISSUED:          0  USEFUL:      26766  USELESS:      85536
L2C USEFUL LOAD PREFETCHES:      26766 PREFETCH ISSUED TO LOWER LEVEL:      83789  ACCURACY: 31.9445
L2C TIMELY PREFETCHES:      26766 LATE PREFETCHES: 0 DROPPED PREFETCHES: 0
L2C PREFETCHES SAME FILL-ORIGIN LEVEL: 0 DIFFERENT FILL-ORIGIN LEVEL: 0
L2C AVERAGE MISS LATENCY: 44.9231 cycles
L2C RQ	ACCESS:    8059479	FORWARD:          0	MERGED:          0	TO_CACHE:    8059432
L2C WQ	ACCESS:    1001187	FORWARD:         78	MERGED:          0	TO_CACHE:    1001187
L2C PQ	ACCESS:     263816	FORWARD:          0	MERGED:          0	TO_CACHE:     263785

L2C Instructions Evicting Data 617577
L2C Translations Evicting Data 71842
L2C Data Evicting Data 405769
L2C Instructions Evicting Instructions 1008108
L2C Translations Evicting Instructions 106265
L2C Data Evicting Instructions 586709
L2C Instructions Evicting Translations 104690
L2C Translations Evicting Translations 14445
L2C Data Evicting Translations 70778
L2C Dense regions hint from L2: 0
PSCL5 TOTAL     ACCESS:     597055  HIT:     597055  MISS:          0  HIT %:        100  MISS %:          0   MPKI: 0
PSCL5 LOAD TRANSLATION ACCESS:     320053  HIT:     320053  MISS:          0  HIT %:        100  MISS %:          0   MPKI: 0
PSCL5 TRANSLATION FROM L1D PREFETCHER ACCESS:     277002  HIT:     277002  MISS:          0  HIT %:        100  MISS %:          0   MPKI: 0
PSCL5 PREFETCH  REQUESTED:          0  ISSUED:          0  USEFUL:          0  USELESS:          0
PSCL5 USEFUL LOAD PREFETCHES:          0 PREFETCH ISSUED TO LOWER LEVEL:          0  ACCURACY: -nan
PSCL5 TIMELY PREFETCHES:          0 LATE PREFETCHES: 0 DROPPED PREFETCHES: 0
PSCL5 PREFETCHES SAME FILL-ORIGIN LEVEL: 0 DIFFERENT FILL-ORIGIN LEVEL: 0

PSCL4 TOTAL     ACCESS:     526374  HIT:     525688  MISS:        686  HIT %:    99.8697  MISS %:   0.130326   MPKI: 0.00343
PSCL4 LOAD TRANSLATION ACCESS:     302876  HIT:     302190  MISS:        686  HIT %:    99.7735  MISS %:   0.226495   MPKI: 0.00343
PSCL4 TRANSLATION FROM L1D PREFETCHER ACCESS:     223498  HIT:     223498  MISS:          0  HIT %:        100  MISS %:          0   MPKI: 0
PSCL4 PREFETCH  REQUESTED:          0  ISSUED:          0  USEFUL:          0  USELESS:          0
PSCL4 USEFUL LOAD PREFETCHES:          0 PREFETCH ISSUED TO LOWER LEVEL:          0  ACCURACY: -nan
PSCL4 TIMELY PREFETCHES:          0 LATE PREFETCHES: 0 DROPPED PREFETCHES: 0
PSCL4 PREFETCHES SAME FILL-ORIGIN LEVEL: 0 DIFFERENT FILL-ORIGIN LEVEL: 0

PSCL3 TOTAL     ACCESS:     540118  HIT:     538747  MISS:       1371  HIT %:    99.7462  MISS %:   0.253833   MPKI: 0.006855
PSCL3 LOAD TRANSLATION ACCESS:     319155  HIT:     317784  MISS:       1371  HIT %:    99.5704  MISS %:   0.429572   MPKI: 0.006855
PSCL3 TRANSLATION FROM L1D PREFETCHER ACCESS:     220963  HIT:     220963  MISS:          0  HIT %:        100  MISS %:          0   MPKI: 0
PSCL3 PREFETCH  REQUESTED:          0  ISSUED:          0  USEFUL:          0  USELESS:          0
PSCL3 USEFUL LOAD PREFETCHES:          0 PREFETCH ISSUED TO LOWER LEVEL:          0  ACCURACY: -nan
PSCL3 TIMELY PREFETCHES:          0 LATE PREFETCHES: 0 DROPPED PREFETCHES: 0
PSCL3 PREFETCHES SAME FILL-ORIGIN LEVEL: 0 DIFFERENT FILL-ORIGIN LEVEL: 0

PSCL2 TOTAL     ACCESS:     367240  HIT:     259039  MISS:     108201  HIT %:    70.5367  MISS %:    29.4633   MPKI: 0.541005
PSCL2 LOAD TRANSLATION ACCESS:     325736  HIT:     217535  MISS:     108201  HIT %:    66.7826  MISS %:    33.2174   MPKI: 0.541005
PSCL2 TRANSLATION FROM L1D PREFETCHER ACCESS:      41504  HIT:      41504  MISS:          0  HIT %:        100  MISS %:          0   MPKI: 0
PSCL2 PREFETCH  REQUESTED:          0  ISSUED:          0  USEFUL:          0  USELESS:          0
PSCL2 USEFUL LOAD PREFETCHES:          0 PREFETCH ISSUED TO LOWER LEVEL:          0  ACCURACY: -nan
PSCL2 TIMELY PREFETCHES:          0 LATE PREFETCHES: 0 DROPPED PREFETCHES: 0
PSCL2 PREFETCHES SAME FILL-ORIGIN LEVEL: 0 DIFFERENT FILL-ORIGIN LEVEL: 0

LLC TOTAL     ACCESS:    3399646  HIT:    3087118  MISS:     312528  HIT %:     90.807  MISS %:    9.19296   MPKI: 1.56264
LLC LOAD      ACCESS:    2574470  HIT:    2332727  MISS:     241743  HIT %:      90.61  MISS %:    9.39001   MPKI: 1.20871
LLC RFO       ACCESS:     135372  HIT:      89085  MISS:      46287  HIT %:    65.8076  MISS %:    34.1924   MPKI: 0.231435
LLC PREFETCH  ACCESS:      83789  HIT:      74163  MISS:       9626  HIT %:    88.5116  MISS %:    11.4884   MPKI: 0.04813
AGUS PREFETCH L1 MISS: 0
LLC WRITEBACK ACCESS:     413463  HIT:     411523  MISS:       1940  HIT %:    99.5308  MISS %:   0.469208   MPKI: 0.0097
LLC LOAD TRANSLATION ACCESS:     163844  HIT:     152381  MISS:      11463  HIT %:    93.0037  MISS %:    6.99629   MPKI: 0.057315
LLC TRANSLATION FROM L1D PREFETCHER ACCESS:      28708  HIT:      27239  MISS:       1469  HIT %:     94.883  MISS %:    5.11704   MPKI: 0.007345
LLC PREFETCH  REQUESTED:          0  ISSUED:          0  USEFUL:       1831  USELESS:       9014
LLC USEFUL LOAD PREFETCHES:       1831 PREFETCH ISSUED TO LOWER LEVEL:       9626  ACCURACY: 19.0214
LLC TIMELY PREFETCHES:       1831 LATE PREFETCHES: 0 DROPPED PREFETCHES: 0
LLC PREFETCHES SAME FILL-ORIGIN LEVEL: 0 DIFFERENT FILL-ORIGIN LEVEL: 0
LLC AVERAGE MISS LATENCY: 149.97 cycles
LLC RQ	ACCESS:    2902394	FORWARD:          0	MERGED:          0	TO_CACHE:    2902394
LLC WQ	ACCESS:     413463	FORWARD:          0	MERGED:          0	TO_CACHE:     413463
LLC PQ	ACCESS:      83789	FORWARD:          0	MERGED:          0	TO_CACHE:      83789

LLC Dense regions hint to LLC: 0

RAW hits: 2834379
Loads Generated: 44864262
Loads sent to L1D: 42029883
Stores Generated: 20323447
Stores sent to L1D: 20323448
Major fault: 0 Minor fault: 6122
Allocated PAGES: 6122
Completed 

DRAM Statistics
 CHANNEL 0
 RQ ROW_BUFFER_HIT:      64915  ROW_BUFFER_MISS:     245672
 DBUS_CONGESTED:        147
 WQ ROW_BUFFER_HIT:      34796  ROW_BUFFER_MISS:     176535  FULL:          0

 AVG_CONGESTED_CYCLE: 4
 All warmup complete: 2
Channel 0 Bank busy for read cycles: 0
Channel 0 Bank busy for write cycles: 0
Channel 0
Rank 0
0banks busy for read cycles: 371069151
0banks busy for write cycles: 115419
1banks busy for read cycles: 28259155
1banks busy for write cycles: 16514619
2banks busy for read cycles: 3879751
2banks busy for write cycles: 4129080
3banks busy for read cycles: 542856
3banks busy for write cycles: 1544106
4banks busy for read cycles: 203002
4banks busy for write cycles: 790757
5banks busy for read cycles: 101772
5banks busy for write cycles: 445606
6banks busy for read cycles: 68840
6banks busy for write cycles: 311215
7banks busy for read cycles: 47017
7banks busy for write cycles: 245800
8banks busy for read cycles: 48388
8banks busy for write cycles: 234145

CPU 0 Branch Prediction Accuracy: 99.8315% MPKI: 0.301655 Average ROB Occupancy at Mispredict: 45.6931
Branch types
NOT_BRANCH: 164189943 82.095%
BRANCH_DIRECT_JUMP: 1763864 0.881932%
BRANCH_INDIRECT: 9441713 4.72086%
BRANCH_CONDITIONAL: 18234424 9.11721%
BRANCH_DIRECT_CALL: 2503051 1.25153%
BRANCH_INDIRECT_CALL: 681117 0.340558%
BRANCH_RETURN: 3185563 1.59278%
BRANCH_OTHER: 0 0%

DRAM PAGES: 1048576
Allocated PAGES: 6122
