
*** ChampSim Multicore Out-of-Order Simulator ***

Warmup Instructions: 50000000
Simulation Instructions: 200000000
Number of CPUs: 1
LLC sets: 2048
LLC ways: 16
Off-chip DRAM Size: 4096 MB Channels: 1 Width: 64-bit Data Rate: 6400 MT/s
CPU 0 runs traces/spec2k17/srv_20.champsimtrace.xz
.xz
BTB has LRU replacement policy
ITLB has LRU replacement policy
DTLB has LRU replacement policy
STLB has LRU replacement policy
L1I has LRU replacement policy
L1D has LRU replacement policy
Initialize SRRIP state for L2C
Initialize DRRIP state for LLC
Heartbeat CPU 0 instructions: 10000001 cycles: 2825767 heartbeat IPC: 3.53886 cumulative IPC: 3.53886 (Simulation time: 0 hr 0 min 45 sec) 
Heartbeat CPU 0 instructions: 20000003 cycles: 5643710 heartbeat IPC: 3.54869 cumulative IPC: 3.54377 (Simulation time: 0 hr 1 min 21 sec) 
Heartbeat CPU 0 instructions: 30000003 cycles: 8465218 heartbeat IPC: 3.5442 cumulative IPC: 3.54391 (Simulation time: 0 hr 2 min 2 sec) 
*** Reached end of trace for Core: 0 Repeating trace: traces/spec2k17/srv_20.champsimtrace.xz
Heartbeat CPU 0 instructions: 40000000 cycles: 11288118 heartbeat IPC: 3.54246 cumulative IPC: 3.54355 (Simulation time: 0 hr 2 min 36 sec) 
Heartbeat CPU 0 instructions: 50000003 cycles: 14111331 heartbeat IPC: 3.54206 cumulative IPC: 3.54325 (Simulation time: 0 hr 3 min 13 sec) 

Warmup complete CPU 0 instructions: 50000003 cycles: 14111331 (Simulation time: 0 hr 3 min 13 sec) 

Heartbeat CPU 0 instructions: 60000003 cycles: 46296449 heartbeat IPC: 0.310703 cumulative IPC: 0.310703 (Simulation time: 0 hr 4 min 17 sec) 
*** Reached end of trace for Core: 0 Repeating trace: traces/spec2k17/srv_20.champsimtrace.xz
Heartbeat CPU 0 instructions: 70000003 cycles: 78416842 heartbeat IPC: 0.311329 cumulative IPC: 0.311015 (Simulation time: 0 hr 5 min 0 sec) 
Heartbeat CPU 0 instructions: 80000000 cycles: 110390962 heartbeat IPC: 0.312753 cumulative IPC: 0.311592 (Simulation time: 0 hr 5 min 48 sec) 
Heartbeat CPU 0 instructions: 90000001 cycles: 142414956 heartbeat IPC: 0.312266 cumulative IPC: 0.31176 (Simulation time: 0 hr 6 min 37 sec) 
*** Reached end of trace for Core: 0 Repeating trace: traces/spec2k17/srv_20.champsimtrace.xz
Heartbeat CPU 0 instructions: 100000001 cycles: 174425648 heartbeat IPC: 0.312396 cumulative IPC: 0.311887 (Simulation time: 0 hr 7 min 43 sec) 
Heartbeat CPU 0 instructions: 110000000 cycles: 206342009 heartbeat IPC: 0.313319 cumulative IPC: 0.312125 (Simulation time: 0 hr 8 min 46 sec) 
Heartbeat CPU 0 instructions: 120000000 cycles: 238231866 heartbeat IPC: 0.313579 cumulative IPC: 0.312332 (Simulation time: 0 hr 9 min 50 sec) 
*** Reached end of trace for Core: 0 Repeating trace: traces/spec2k17/srv_20.champsimtrace.xz
Heartbeat CPU 0 instructions: 130000000 cycles: 270155480 heartbeat IPC: 0.313248 cumulative IPC: 0.312446 (Simulation time: 0 hr 10 min 58 sec) 
Heartbeat CPU 0 instructions: 140000000 cycles: 302041983 heartbeat IPC: 0.313612 cumulative IPC: 0.312575 (Simulation time: 0 hr 12 min 3 sec) 
Heartbeat CPU 0 instructions: 150000000 cycles: 333847438 heartbeat IPC: 0.314411 cumulative IPC: 0.312758 (Simulation time: 0 hr 13 min 9 sec) 
*** Reached end of trace for Core: 0 Repeating trace: traces/spec2k17/srv_20.champsimtrace.xz
Heartbeat CPU 0 instructions: 160000003 cycles: 365660245 heartbeat IPC: 0.314339 cumulative IPC: 0.312901 (Simulation time: 0 hr 14 min 19 sec) 
Heartbeat CPU 0 instructions: 170000001 cycles: 397560090 heartbeat IPC: 0.313481 cumulative IPC: 0.312949 (Simulation time: 0 hr 15 min 29 sec) 
Heartbeat CPU 0 instructions: 180000001 cycles: 429208297 heartbeat IPC: 0.315974 cumulative IPC: 0.31318 (Simulation time: 0 hr 16 min 37 sec) 
*** Reached end of trace for Core: 0 Repeating trace: traces/spec2k17/srv_20.champsimtrace.xz
Heartbeat CPU 0 instructions: 190000002 cycles: 461004229 heartbeat IPC: 0.314506 cumulative IPC: 0.313274 (Simulation time: 0 hr 17 min 45 sec) 
Heartbeat CPU 0 instructions: 200000000 cycles: 492884448 heartbeat IPC: 0.313674 cumulative IPC: 0.313301 (Simulation time: 0 hr 18 min 45 sec) 
Heartbeat CPU 0 instructions: 210000002 cycles: 524531152 heartbeat IPC: 0.315989 cumulative IPC: 0.313467 (Simulation time: 0 hr 19 min 47 sec) 
*** Reached end of trace for Core: 0 Repeating trace: traces/spec2k17/srv_20.champsimtrace.xz
Heartbeat CPU 0 instructions: 220000000 cycles: 556333701 heartbeat IPC: 0.31444 cumulative IPC: 0.313524 (Simulation time: 0 hr 20 min 54 sec) 
Heartbeat CPU 0 instructions: 230000000 cycles: 588176904 heartbeat IPC: 0.314039 cumulative IPC: 0.313553 (Simulation time: 0 hr 22 min 2 sec) 
Heartbeat CPU 0 instructions: 240000000 cycles: 619886107 heartbeat IPC: 0.315366 cumulative IPC: 0.313648 (Simulation time: 0 hr 23 min 0 sec) 
*** Reached end of trace for Core: 0 Repeating trace: traces/spec2k17/srv_20.champsimtrace.xz
Heartbeat CPU 0 instructions: 250000002 cycles: 651725868 heartbeat IPC: 0.314073 cumulative IPC: 0.313669 (Simulation time: 0 hr 24 min 1 sec) 
Finished CPU 0 instructions: 200000003 cycles: 637614538 cumulative IPC: 0.313669 (Simulation time: 0 hr 24 min 1 sec) 

ChampSim completed all CPUs

Region of Interest Statistics

CPU 0 cumulative IPC: 0.313669 instructions: 200000003 cycles: 637614538
ITLB TOTAL     ACCESS:   34715083  HIT:   32681399  MISS:    2033684  HIT %:    94.1418  MISS %:    5.85821   MPKI: 10.1684
ITLB LOAD TRANSLATION ACCESS:   34715083  HIT:   32681399  MISS:    2033684  HIT %:    94.1418  MISS %:    5.85821   MPKI: 10.1684
ITLB PREFETCH  REQUESTED:          0  ISSUED:          0  USEFUL:          0  USELESS:          0
ITLB USEFUL LOAD PREFETCHES:          0 PREFETCH ISSUED TO LOWER LEVEL:          0  ACCURACY: -nan
ITLB TIMELY PREFETCHES:          0 LATE PREFETCHES: 0 DROPPED PREFETCHES: 0
ITLB PREFETCHES SAME FILL-ORIGIN LEVEL: 0 DIFFERENT FILL-ORIGIN LEVEL: 0
ITLB AVERAGE MISS LATENCY: 9.0507 cycles
ITLB RQ	ACCESS:   40942566	FORWARD:          0	MERGED:    5742372	TO_CACHE:   35200194

DTLB TOTAL     ACCESS:   46546486  HIT:   44705042  MISS:    1841444  HIT %:    96.0439  MISS %:    3.95614   MPKI: 9.20722
DTLB LOAD TRANSLATION ACCESS:   46546486  HIT:   44705042  MISS:    1841444  HIT %:    96.0439  MISS %:    3.95614   MPKI: 9.20722
DTLB PREFETCH  REQUESTED:          0  ISSUED:          0  USEFUL:          0  USELESS:          0
DTLB USEFUL LOAD PREFETCHES:          0 PREFETCH ISSUED TO LOWER LEVEL:          0  ACCURACY: -nan
DTLB TIMELY PREFETCHES:          0 LATE PREFETCHES: 0 DROPPED PREFETCHES: 0
DTLB PREFETCHES SAME FILL-ORIGIN LEVEL: 0 DIFFERENT FILL-ORIGIN LEVEL: 0
DTLB AVERAGE MISS LATENCY: 8.44331 cycles
DTLB RQ	ACCESS:   61166012	FORWARD:          0	MERGED:   14556991	TO_CACHE:   46609021

STLB TOTAL     ACCESS:   19735722  HIT:   19726424  MISS:       9298  HIT %:    99.9529  MISS %:  0.0471125   MPKI: 0.04649
STLB LOAD TRANSLATION ACCESS:    3875128  HIT:    3866747  MISS:       8381  HIT %:    99.7837  MISS %:   0.216277   MPKI: 0.041905
STLB TRANSLATION FROM L1D PREFETCHER ACCESS:   15860594  HIT:   15859677  MISS:        917  HIT %:    99.9942  MISS %: 0.00578162   MPKI: 0.004585
STLB PREFETCH  REQUESTED:          0  ISSUED:          0  USEFUL:        594  USELESS:        311
STLB USEFUL LOAD PREFETCHES:        594 PREFETCH ISSUED TO LOWER LEVEL:          0  ACCURACY: inf
STLB TIMELY PREFETCHES:        594 LATE PREFETCHES: 172 DROPPED PREFETCHES: 275280
STLB PREFETCHES SAME FILL-ORIGIN LEVEL: 0 DIFFERENT FILL-ORIGIN LEVEL: 0
STLB AVERAGE MISS LATENCY: 43.9274 cycles
STLB RQ	ACCESS:   22609574	FORWARD:          0	MERGED:    2598263	TO_CACHE:   20011311

STLB Hit, L1D data hit: 0
STLB Hit, L2C data hit: 0
STLB Hit, LLC data hit: 0
STLB Hit, LLC data miss: 0
STLB STLB hints to L2: 0
L1D TOTAL     ACCESS:   76979259  HIT:   72552639  MISS:    4426620  HIT %:    94.2496  MISS %:    5.75041   MPKI: 22.1331
L1D LOAD      ACCESS:   34259405  HIT:   32066953  MISS:    2192452  HIT %:    93.6004  MISS %:    6.39956   MPKI: 10.9623
L1D RFO       ACCESS:   25106623  HIT:   24026962  MISS:    1079661  HIT %:    95.6997  MISS %:     4.3003   MPKI: 5.3983
L1D PREFETCH  ACCESS:   17613231  HIT:   16458724  MISS:    1154507  HIT %:    93.4452  MISS %:    6.55477   MPKI: 5.77253
AGUS PREFETCH L1 MISS: 0
L1D PREFETCH  REQUESTED:   40410234  ISSUED:   40410212  USEFUL:     799258  USELESS:     355188
L1D USEFUL LOAD PREFETCHES:     799258 PREFETCH ISSUED TO LOWER LEVEL:    1522932  ACCURACY: 52.4815
L1D TIMELY PREFETCHES:     799258 LATE PREFETCHES: 364337 DROPPED PREFETCHES: 296012
L1D PREFETCHES SAME FILL-ORIGIN LEVEL: 1522932 DIFFERENT FILL-ORIGIN LEVEL: 0
L1D AVERAGE MISS LATENCY: 3.30119e+07 cycles
L1D RQ	ACCESS:   47531719	FORWARD:          0	MERGED:   12856374	TO_CACHE:   34373102
L1D WQ	ACCESS:   26961101	FORWARD:     338916	MERGED:     168191	TO_CACHE:   26792910
L1D PQ	ACCESS:   21675766	FORWARD:          0	MERGED:    2904647	TO_CACHE:   18734446

L1D UNIQUE REGIONS ACCESSED: 0
L1D REGIONS CONFLICTS: 0
L1D Cross Page Prefetch Requests: 14598809
L1D Same Page Prefetch Requests: 8115921
L1D ROI Sum of L1D PQ occupancy: 265399677
L1D PREFETCHES PUSHED FROM L2C: 0
L1I TOTAL     ACCESS:   39411705  HIT:   28795200  MISS:   10616505  HIT %:    73.0626  MISS %:    26.9374   MPKI: 53.0825
L1I LOAD      ACCESS:   39411705  HIT:   28795200  MISS:   10616505  HIT %:    73.0626  MISS %:    26.9374   MPKI: 53.0825
L1I PREFETCH  REQUESTED:          0  ISSUED:          0  USEFUL:          0  USELESS:          0
L1I USEFUL LOAD PREFETCHES:          0 PREFETCH ISSUED TO LOWER LEVEL:          0  ACCURACY: -nan
L1I TIMELY PREFETCHES:          0 LATE PREFETCHES: 0 DROPPED PREFETCHES: 0
L1I PREFETCHES SAME FILL-ORIGIN LEVEL: 0 DIFFERENT FILL-ORIGIN LEVEL: 0
L1I AVERAGE MISS LATENCY: 16.9328 cycles
L1I RQ	ACCESS:   57966365	FORWARD:          0	MERGED:   17023799	TO_CACHE:   40942566

BTB TOTAL     ACCESS:   29994000  HIT:   17272559  MISS:   12721441  HIT %:    57.5867  MISS %:    42.4133   MPKI: 63.6072
BTB BRANCH_DIRECT_JUMP	ACCESS:    2025964  HIT:    1135056  MISS:     890908
BTB BRANCH_INDIRECT	ACCESS:   11876543  HIT:    7045667  MISS:    4830876
BTB BRANCH_CONDITIONAL	ACCESS:    7549910  HIT:    6212601  MISS:    1337309
BTB BRANCH_DIRECT_CALL	ACCESS:    3602862  HIT:    1507613  MISS:    2095249
BTB BRANCH_INDIRECT_CALL	ACCESS:     667964  HIT:     262432  MISS:     405532
BTB BRANCH_RETURN	ACCESS:    4270757  HIT:    1109190  MISS:    3161567
BTB BRANCH_OTHER ACCESS:          0  HIT:          0  MISS:          0

L2C TOTAL     ACCESS:   17518501  HIT:   15748977  MISS:    1769524  HIT %:    89.8991  MISS %:    10.1009   MPKI: 8.84762
L2C LOAD      ACCESS:   12444598  HIT:   11158885  MISS:    1285713  HIT %:    89.6685  MISS %:    10.3315   MPKI: 6.42856
L2C DATA LOAD MPKI: 1.39283
L2C INSTRUCTION LOAD MPKI: 5.03573
L2C RFO       ACCESS:    1075565  HIT:     868378  MISS:     207187  HIT %:    80.7369  MISS %:    19.2631   MPKI: 1.03593
L2C PREFETCH  ACCESS:    1522911  HIT:    1350551  MISS:     172360  HIT %:    88.6822  MISS %:    11.3178   MPKI: 0.8618
AGUS PREFETCH L1 MISS: 0
L2C DATA PREFETCH MPKI: 0.8618
L2C INSTRUCTION PREFETCH MPKI: 0
L2C WRITEBACK ACCESS:    2021904  HIT:    1958906  MISS:      62998  HIT %:    96.8842  MISS %:    3.11578   MPKI: 0.31499
L2C LOAD TRANSLATION ACCESS:       8959  HIT:       3478  MISS:       5481  HIT %:    38.8213  MISS %:    61.1787   MPKI: 0.027405
L2C TRANSLATION FROM L1D PREFETCHER ACCESS:     444564  HIT:     408779  MISS:      35785  HIT %:    91.9505  MISS %:    8.04946   MPKI: 0.178925
L2C PREFETCH  REQUESTED:          0  ISSUED:          0  USEFUL:      38705  USELESS:     169223
L2C USEFUL LOAD PREFETCHES:      38705 PREFETCH ISSUED TO LOWER LEVEL:     172360  ACCURACY: 22.4559
L2C TIMELY PREFETCHES:      38705 LATE PREFETCHES: 0 DROPPED PREFETCHES: 0
L2C PREFETCHES SAME FILL-ORIGIN LEVEL: 0 DIFFERENT FILL-ORIGIN LEVEL: 0
L2C AVERAGE MISS LATENCY: 30.9605 cycles
L2C RQ	ACCESS:   13973716	FORWARD:          0	MERGED:          0	TO_CACHE:   13973686
L2C WQ	ACCESS:    2021904	FORWARD:         51	MERGED:          0	TO_CACHE:    2021904
L2C PQ	ACCESS:    1522932	FORWARD:          0	MERGED:          0	TO_CACHE:    1522911

L2C Instructions Evicting Data 370854
L2C Translations Evicting Data 20270
L2C Data Evicting Data 305537
L2C Instructions Evicting Instructions 616372
L2C Translations Evicting Instructions 19960
L2C Data Evicting Instructions 333733
L2C Instructions Evicting Translations 19920
L2C Translations Evicting Translations 1036
L2C Data Evicting Translations 18844
L2C Dense regions hint from L2: 0
PSCL5 TOTAL     ACCESS:     282056  HIT:     282056  MISS:          0  HIT %:        100  MISS %:          0   MPKI: 0
PSCL5 LOAD TRANSLATION ACCESS:       8209  HIT:       8209  MISS:          0  HIT %:        100  MISS %:          0   MPKI: 0
PSCL5 TRANSLATION FROM L1D PREFETCHER ACCESS:     273847  HIT:     273847  MISS:          0  HIT %:        100  MISS %:          0   MPKI: 0
PSCL5 PREFETCH  REQUESTED:          0  ISSUED:          0  USEFUL:          0  USELESS:          0
PSCL5 USEFUL LOAD PREFETCHES:          0 PREFETCH ISSUED TO LOWER LEVEL:          0  ACCURACY: -nan
PSCL5 TIMELY PREFETCHES:          0 LATE PREFETCHES: 0 DROPPED PREFETCHES: 0
PSCL5 PREFETCHES SAME FILL-ORIGIN LEVEL: 0 DIFFERENT FILL-ORIGIN LEVEL: 0

PSCL4 TOTAL     ACCESS:     192052  HIT:     191967  MISS:         85  HIT %:    99.9557  MISS %:  0.0442588   MPKI: 0.000425
PSCL4 LOAD TRANSLATION ACCESS:       7408  HIT:       7323  MISS:         85  HIT %:    98.8526  MISS %:    1.14741   MPKI: 0.000425
PSCL4 TRANSLATION FROM L1D PREFETCHER ACCESS:     184644  HIT:     184644  MISS:          0  HIT %:        100  MISS %:          0   MPKI: 0
PSCL4 PREFETCH  REQUESTED:          0  ISSUED:          0  USEFUL:          0  USELESS:          0
PSCL4 USEFUL LOAD PREFETCHES:          0 PREFETCH ISSUED TO LOWER LEVEL:          0  ACCURACY: -nan
PSCL4 TIMELY PREFETCHES:          0 LATE PREFETCHES: 0 DROPPED PREFETCHES: 0
PSCL4 PREFETCHES SAME FILL-ORIGIN LEVEL: 0 DIFFERENT FILL-ORIGIN LEVEL: 0

PSCL3 TOTAL     ACCESS:     202559  HIT:     202474  MISS:         85  HIT %:     99.958  MISS %:  0.0419631   MPKI: 0.000425
PSCL3 LOAD TRANSLATION ACCESS:       7584  HIT:       7499  MISS:         85  HIT %:    98.8792  MISS %:    1.12078   MPKI: 0.000425
PSCL3 TRANSLATION FROM L1D PREFETCHER ACCESS:     194975  HIT:     194975  MISS:          0  HIT %:        100  MISS %:          0   MPKI: 0
PSCL3 PREFETCH  REQUESTED:          0  ISSUED:          0  USEFUL:          0  USELESS:          0
PSCL3 USEFUL LOAD PREFETCHES:          0 PREFETCH ISSUED TO LOWER LEVEL:          0  ACCURACY: -nan
PSCL3 TIMELY PREFETCHES:          0 LATE PREFETCHES: 0 DROPPED PREFETCHES: 0
PSCL3 PREFETCHES SAME FILL-ORIGIN LEVEL: 0 DIFFERENT FILL-ORIGIN LEVEL: 0

PSCL2 TOTAL     ACCESS:      63253  HIT:      62606  MISS:        647  HIT %:    98.9771  MISS %:    1.02288   MPKI: 0.003235
PSCL2 LOAD TRANSLATION ACCESS:       8254  HIT:       7607  MISS:        647  HIT %:    92.1614  MISS %:    7.83862   MPKI: 0.003235
PSCL2 TRANSLATION FROM L1D PREFETCHER ACCESS:      54999  HIT:      54999  MISS:          0  HIT %:        100  MISS %:          0   MPKI: 0
PSCL2 PREFETCH  REQUESTED:          0  ISSUED:          0  USEFUL:          0  USELESS:          0
PSCL2 USEFUL LOAD PREFETCHES:          0 PREFETCH ISSUED TO LOWER LEVEL:          0  ACCURACY: -nan
PSCL2 TIMELY PREFETCHES:          0 LATE PREFETCHES: 0 DROPPED PREFETCHES: 0
PSCL2 PREFETCHES SAME FILL-ORIGIN LEVEL: 0 DIFFERENT FILL-ORIGIN LEVEL: 0

LLC TOTAL     ACCESS:    2007294  HIT:    1983094  MISS:      24200  HIT %:    98.7944  MISS %:     1.2056   MPKI: 0.121
LLC LOAD      ACCESS:    1285713  HIT:    1277354  MISS:       8359  HIT %:    99.3499  MISS %:   0.650145   MPKI: 0.041795
LLC RFO       ACCESS:     207187  HIT:     197159  MISS:      10028  HIT %:    95.1599  MISS %:    4.84007   MPKI: 0.05014
LLC PREFETCH  ACCESS:     172360  HIT:     167586  MISS:       4774  HIT %:    97.2302  MISS %:    2.76978   MPKI: 0.02387
AGUS PREFETCH L1 MISS: 0
LLC WRITEBACK ACCESS:     300768  HIT:     300582  MISS:        186  HIT %:    99.9382  MISS %:  0.0618417   MPKI: 0.00093
LLC LOAD TRANSLATION ACCESS:       5481  HIT:       5364  MISS:        117  HIT %:    97.8654  MISS %:    2.13465   MPKI: 0.000585
LLC TRANSLATION FROM L1D PREFETCHER ACCESS:      35785  HIT:      35049  MISS:        736  HIT %:    97.9433  MISS %:    2.05673   MPKI: 0.00368
LLC PREFETCH  REQUESTED:          0  ISSUED:          0  USEFUL:       1128  USELESS:       3013
LLC USEFUL LOAD PREFETCHES:       1128 PREFETCH ISSUED TO LOWER LEVEL:       4774  ACCURACY: 23.628
LLC TIMELY PREFETCHES:       1128 LATE PREFETCHES: 0 DROPPED PREFETCHES: 0
LLC PREFETCHES SAME FILL-ORIGIN LEVEL: 0 DIFFERENT FILL-ORIGIN LEVEL: 0
LLC AVERAGE MISS LATENCY: 148.308 cycles
LLC RQ	ACCESS:    1534166	FORWARD:          0	MERGED:          0	TO_CACHE:    1534166
LLC WQ	ACCESS:     300768	FORWARD:          0	MERGED:          0	TO_CACHE:     300768
LLC PQ	ACCESS:     172360	FORWARD:          0	MERGED:          0	TO_CACHE:     172360

LLC Dense regions hint to LLC: 0

RAW hits: 1406216
Loads Generated: 48937935
Loads sent to L1D: 47531719
Stores Generated: 26961103
Stores sent to L1D: 26961101
Major fault: 0 Minor fault: 1949
Allocated PAGES: 1949
Completed 

DRAM Statistics
 CHANNEL 0
 RQ ROW_BUFFER_HIT:       5713  ROW_BUFFER_MISS:      18300
 DBUS_CONGESTED:         34
 WQ ROW_BUFFER_HIT:       1307  ROW_BUFFER_MISS:      10130  FULL:          0

 AVG_CONGESTED_CYCLE: 5
 All warmup complete: 2
Channel 0 Bank busy for read cycles: 0
Channel 0 Bank busy for write cycles: 0
Channel 0
Rank 0
0banks busy for read cycles: 634558412
0banks busy for write cycles: 5194
1banks busy for read cycles: 1518592
1banks busy for write cycles: 684769
2banks busy for read cycles: 267191
2banks busy for write cycles: 116828
3banks busy for read cycles: 112213
3banks busy for write cycles: 65774
4banks busy for read cycles: 60068
4banks busy for write cycles: 41747
5banks busy for read cycles: 33806
5banks busy for write cycles: 31709
6banks busy for read cycles: 18662
6banks busy for write cycles: 25965
7banks busy for read cycles: 10859
7banks busy for write cycles: 26840
8banks busy for read cycles: 5510
8banks busy for write cycles: 30400

CPU 0 Branch Prediction Accuracy: 99.8849% MPKI: 0.202245 Average ROB Occupancy at Mispredict: 31.9385
Branch types
NOT_BRANCH: 164866943 82.4335%
BRANCH_DIRECT_JUMP: 2025964 1.01298%
BRANCH_INDIRECT: 11876543 5.93827%
BRANCH_CONDITIONAL: 12688705 6.34435%
BRANCH_DIRECT_CALL: 3602862 1.80143%
BRANCH_INDIRECT_CALL: 667964 0.333982%
BRANCH_RETURN: 4270757 2.13538%
BRANCH_OTHER: 0 0%

DRAM PAGES: 1048576
Allocated PAGES: 1949
