
*** ChampSim Multicore Out-of-Order Simulator ***

Warmup Instructions: 50000000
Simulation Instructions: 200000000
Number of CPUs: 1
LLC sets: 2048
LLC ways: 16
Off-chip DRAM Size: 4096 MB Channels: 1 Width: 64-bit Data Rate: 6400 MT/s
CPU 0 runs traces/spec2k17/srv_14.champsimtrace.xz
.xz
BTB has LRU replacement policy
ITLB has LRU replacement policy
DTLB has LRU replacement policy
STLB has LRU replacement policy
L1I has LRU replacement policy
L1D has LRU replacement policy
Initialize SRRIP state for L2C
Initialize DRRIP state for LLC
Heartbeat CPU 0 instructions: 10000003 cycles: 2847246 heartbeat IPC: 3.51217 cumulative IPC: 3.51217 (Simulation time: 0 hr 0 min 51 sec) 
Heartbeat CPU 0 instructions: 20000000 cycles: 5689251 heartbeat IPC: 3.51864 cumulative IPC: 3.5154 (Simulation time: 0 hr 1 min 29 sec) 
Heartbeat CPU 0 instructions: 30000001 cycles: 8532221 heartbeat IPC: 3.51745 cumulative IPC: 3.51608 (Simulation time: 0 hr 2 min 7 sec) 
*** Reached end of trace for Core: 0 Repeating trace: traces/spec2k17/srv_14.champsimtrace.xz
Heartbeat CPU 0 instructions: 40000000 cycles: 11381183 heartbeat IPC: 3.51005 cumulative IPC: 3.51457 (Simulation time: 0 hr 2 min 42 sec) 
Heartbeat CPU 0 instructions: 50000001 cycles: 14235256 heartbeat IPC: 3.50376 cumulative IPC: 3.51241 (Simulation time: 0 hr 3 min 16 sec) 

Warmup complete CPU 0 instructions: 50000001 cycles: 14235256 (Simulation time: 0 hr 3 min 16 sec) 

Heartbeat CPU 0 instructions: 60000001 cycles: 46731369 heartbeat IPC: 0.307729 cumulative IPC: 0.307729 (Simulation time: 0 hr 4 min 2 sec) 
*** Reached end of trace for Core: 0 Repeating trace: traces/spec2k17/srv_14.champsimtrace.xz
Heartbeat CPU 0 instructions: 70000003 cycles: 79137435 heartbeat IPC: 0.308584 cumulative IPC: 0.308156 (Simulation time: 0 hr 5 min 8 sec) 
Heartbeat CPU 0 instructions: 80000002 cycles: 111374577 heartbeat IPC: 0.310201 cumulative IPC: 0.308835 (Simulation time: 0 hr 6 min 6 sec) 
Heartbeat CPU 0 instructions: 90000002 cycles: 143478258 heartbeat IPC: 0.311491 cumulative IPC: 0.309495 (Simulation time: 0 hr 7 min 6 sec) 
*** Reached end of trace for Core: 0 Repeating trace: traces/spec2k17/srv_14.champsimtrace.xz
Heartbeat CPU 0 instructions: 100000003 cycles: 175563166 heartbeat IPC: 0.311673 cumulative IPC: 0.309928 (Simulation time: 0 hr 8 min 11 sec) 
Heartbeat CPU 0 instructions: 110000000 cycles: 207575912 heartbeat IPC: 0.312375 cumulative IPC: 0.310333 (Simulation time: 0 hr 9 min 16 sec) 
Heartbeat CPU 0 instructions: 120000000 cycles: 239670966 heartbeat IPC: 0.311574 cumulative IPC: 0.31051 (Simulation time: 0 hr 10 min 23 sec) 
*** Reached end of trace for Core: 0 Repeating trace: traces/spec2k17/srv_14.champsimtrace.xz
Heartbeat CPU 0 instructions: 130000000 cycles: 271680891 heartbeat IPC: 0.312403 cumulative IPC: 0.310745 (Simulation time: 0 hr 11 min 29 sec) 
Heartbeat CPU 0 instructions: 140000001 cycles: 303777765 heartbeat IPC: 0.311557 cumulative IPC: 0.310835 (Simulation time: 0 hr 12 min 33 sec) 
Heartbeat CPU 0 instructions: 150000002 cycles: 335766491 heartbeat IPC: 0.31261 cumulative IPC: 0.311012 (Simulation time: 0 hr 13 min 41 sec) 
*** Reached end of trace for Core: 0 Repeating trace: traces/spec2k17/srv_14.champsimtrace.xz
Heartbeat CPU 0 instructions: 160000000 cycles: 367808760 heartbeat IPC: 0.312088 cumulative IPC: 0.311109 (Simulation time: 0 hr 14 min 47 sec) 
Heartbeat CPU 0 instructions: 170000001 cycles: 399813851 heartbeat IPC: 0.31245 cumulative IPC: 0.311221 (Simulation time: 0 hr 15 min 35 sec) 
Heartbeat CPU 0 instructions: 180000001 cycles: 431829540 heartbeat IPC: 0.312347 cumulative IPC: 0.311307 (Simulation time: 0 hr 16 min 36 sec) 
*** Reached end of trace for Core: 0 Repeating trace: traces/spec2k17/srv_14.champsimtrace.xz
Heartbeat CPU 0 instructions: 190000000 cycles: 463831436 heartbeat IPC: 0.312481 cumulative IPC: 0.311391 (Simulation time: 0 hr 17 min 36 sec) 
Heartbeat CPU 0 instructions: 200000000 cycles: 495907728 heartbeat IPC: 0.311757 cumulative IPC: 0.311415 (Simulation time: 0 hr 18 min 28 sec) 
Heartbeat CPU 0 instructions: 210000003 cycles: 527887974 heartbeat IPC: 0.312693 cumulative IPC: 0.311494 (Simulation time: 0 hr 19 min 27 sec) 
*** Reached end of trace for Core: 0 Repeating trace: traces/spec2k17/srv_14.champsimtrace.xz
Heartbeat CPU 0 instructions: 220000000 cycles: 559892799 heartbeat IPC: 0.312453 cumulative IPC: 0.311551 (Simulation time: 0 hr 20 min 14 sec) 
Heartbeat CPU 0 instructions: 230000000 cycles: 591912497 heartbeat IPC: 0.312308 cumulative IPC: 0.311593 (Simulation time: 0 hr 21 min 18 sec) 
Heartbeat CPU 0 instructions: 240000001 cycles: 623891748 heartbeat IPC: 0.312703 cumulative IPC: 0.311651 (Simulation time: 0 hr 22 min 19 sec) 
Heartbeat CPU 0 instructions: 250000001 cycles: 655868726 heartbeat IPC: 0.312725 cumulative IPC: 0.311704 (Simulation time: 0 hr 23 min 19 sec) 
Finished CPU 0 instructions: 200000000 cycles: 641633470 cumulative IPC: 0.311704 (Simulation time: 0 hr 23 min 19 sec) 

ChampSim completed all CPUs

Region of Interest Statistics

CPU 0 cumulative IPC: 0.311704 instructions: 200000000 cycles: 641633470
ITLB TOTAL     ACCESS:   35621434  HIT:   33397992  MISS:    2223442  HIT %:    93.7581  MISS %:    6.24187   MPKI: 11.1172
ITLB LOAD TRANSLATION ACCESS:   35621434  HIT:   33397992  MISS:    2223442  HIT %:    93.7581  MISS %:    6.24187   MPKI: 11.1172
ITLB PREFETCH  REQUESTED:          0  ISSUED:          0  USEFUL:          0  USELESS:          0
ITLB USEFUL LOAD PREFETCHES:          0 PREFETCH ISSUED TO LOWER LEVEL:          0  ACCURACY: -nan
ITLB TIMELY PREFETCHES:          0 LATE PREFETCHES: 0 DROPPED PREFETCHES: 0
ITLB PREFETCHES SAME FILL-ORIGIN LEVEL: 0 DIFFERENT FILL-ORIGIN LEVEL: 0
ITLB AVERAGE MISS LATENCY: 9.18236 cycles
ITLB RQ	ACCESS:   41871885	FORWARD:          0	MERGED:    5724390	TO_CACHE:   36147495

DTLB TOTAL     ACCESS:   45884925  HIT:   43881546  MISS:    2003379  HIT %:    95.6339  MISS %:    4.36609   MPKI: 10.0169
DTLB LOAD TRANSLATION ACCESS:   45884925  HIT:   43881546  MISS:    2003379  HIT %:    95.6339  MISS %:    4.36609   MPKI: 10.0169
DTLB PREFETCH  REQUESTED:          0  ISSUED:          0  USEFUL:          0  USELESS:          0
DTLB USEFUL LOAD PREFETCHES:          0 PREFETCH ISSUED TO LOWER LEVEL:          0  ACCURACY: -nan
DTLB TIMELY PREFETCHES:          0 LATE PREFETCHES: 0 DROPPED PREFETCHES: 0
DTLB PREFETCHES SAME FILL-ORIGIN LEVEL: 0 DIFFERENT FILL-ORIGIN LEVEL: 0
DTLB AVERAGE MISS LATENCY: 8.31046 cycles
DTLB RQ	ACCESS:   60589194	FORWARD:          0	MERGED:   14650497	TO_CACHE:   45938697

STLB TOTAL     ACCESS:   22706884  HIT:   22680023  MISS:      26861  HIT %:    99.8817  MISS %:   0.118295   MPKI: 0.134305
STLB LOAD TRANSLATION ACCESS:    4226821  HIT:    4201243  MISS:      25578  HIT %:    99.3949  MISS %:   0.605136   MPKI: 0.12789
STLB TRANSLATION FROM L1D PREFETCHER ACCESS:   18480063  HIT:   18478780  MISS:       1283  HIT %:    99.9931  MISS %: 0.00694262   MPKI: 0.006415
STLB PREFETCH  REQUESTED:          0  ISSUED:          0  USEFUL:       1115  USELESS:        166
STLB USEFUL LOAD PREFETCHES:       1115 PREFETCH ISSUED TO LOWER LEVEL:          0  ACCURACY: inf
STLB TIMELY PREFETCHES:       1115 LATE PREFETCHES: 560 DROPPED PREFETCHES: 326740
STLB PREFETCHES SAME FILL-ORIGIN LEVEL: 0 DIFFERENT FILL-ORIGIN LEVEL: 0
STLB AVERAGE MISS LATENCY: 29.5802 cycles
STLB RQ	ACCESS:   26209592	FORWARD:          0	MERGED:    3174344	TO_CACHE:   23035248

STLB Hit, L1D data hit: 0
STLB Hit, L2C data hit: 0
STLB Hit, LLC data hit: 0
STLB Hit, LLC data miss: 0
STLB STLB hints to L2: 0
L1D TOTAL     ACCESS:   78953064  HIT:   73084838  MISS:    5868226  HIT %:    92.5674  MISS %:    7.43255   MPKI: 29.3411
L1D LOAD      ACCESS:   34054196  HIT:   30810980  MISS:    3243216  HIT %:    90.4763  MISS %:    9.52369   MPKI: 16.2161
L1D RFO       ACCESS:   24822867  HIT:   23720930  MISS:    1101937  HIT %:    95.5608  MISS %:     4.4392   MPKI: 5.50969
L1D PREFETCH  ACCESS:   20076001  HIT:   18552928  MISS:    1523073  HIT %:    92.4135  MISS %:    7.58654   MPKI: 7.61536
AGUS PREFETCH L1 MISS: 0
L1D PREFETCH  REQUESTED:   47537317  ISSUED:   47537300  USEFUL:    1128366  USELESS:     394663
L1D USEFUL LOAD PREFETCHES:    1128366 PREFETCH ISSUED TO LOWER LEVEL:    2287117  ACCURACY: 49.3357
L1D TIMELY PREFETCHES:    1128366 LATE PREFETCHES: 755818 DROPPED PREFETCHES: 374579
L1D PREFETCHES SAME FILL-ORIGIN LEVEL: 2287117 DIFFERENT FILL-ORIGIN LEVEL: 0
L1D AVERAGE MISS LATENCY: 4.6543e+07 cycles
L1D RQ	ACCESS:   46523145	FORWARD:          0	MERGED:   12036770	TO_CACHE:   34163632
L1D WQ	ACCESS:   26571628	FORWARD:     352566	MERGED:     146066	TO_CACHE:   26425562
L1D PQ	ACCESS:   25554529	FORWARD:          0	MERGED:    3541935	TO_CACHE:   21982771

L1D UNIQUE REGIONS ACCESSED: 0
L1D REGIONS CONFLICTS: 0
L1D Cross Page Prefetch Requests: 17025197
L1D Same Page Prefetch Requests: 10222224
L1D ROI Sum of L1D PQ occupancy: 307673195
L1D PREFETCHES PUSHED FROM L2C: 0
L1I TOTAL     ACCESS:   40230747  HIT:   28936470  MISS:   11294277  HIT %:    71.9263  MISS %:    28.0737   MPKI: 56.4714
L1I LOAD      ACCESS:   40230747  HIT:   28936470  MISS:   11294277  HIT %:    71.9263  MISS %:    28.0737   MPKI: 56.4714
L1I PREFETCH  REQUESTED:          0  ISSUED:          0  USEFUL:          0  USELESS:          0
L1I USEFUL LOAD PREFETCHES:          0 PREFETCH ISSUED TO LOWER LEVEL:          0  ACCURACY: -nan
L1I TIMELY PREFETCHES:          0 LATE PREFETCHES: 0 DROPPED PREFETCHES: 0
L1I PREFETCHES SAME FILL-ORIGIN LEVEL: 0 DIFFERENT FILL-ORIGIN LEVEL: 0
L1I AVERAGE MISS LATENCY: 15.865 cycles
L1I RQ	ACCESS:   58202362	FORWARD:          0	MERGED:   16330477	TO_CACHE:   41871885

BTB TOTAL     ACCESS:   30318301  HIT:   17551380  MISS:   12766921  HIT %:    57.8904  MISS %:    42.1096   MPKI: 63.8346
BTB BRANCH_DIRECT_JUMP	ACCESS:    1886938  HIT:    1046620  MISS:     840318
BTB BRANCH_INDIRECT	ACCESS:   11997161  HIT:    7128169  MISS:    4868992
BTB BRANCH_CONDITIONAL	ACCESS:    7233043  HIT:    5926175  MISS:    1306868
BTB BRANCH_DIRECT_CALL	ACCESS:    3870839  HIT:    1774369  MISS:    2096470
BTB BRANCH_INDIRECT_CALL	ACCESS:     729710  HIT:     345433  MISS:     384277
BTB BRANCH_RETURN	ACCESS:    4600610  HIT:    1330614  MISS:    3269996
BTB BRANCH_OTHER ACCESS:          0  HIT:          0  MISS:          0

L2C TOTAL     ACCESS:   19908741  HIT:   18659103  MISS:    1249638  HIT %:    93.7232  MISS %:    6.27683   MPKI: 6.24819
L2C LOAD      ACCESS:   13781645  HIT:   12853475  MISS:     928170  HIT %:    93.2652  MISS %:    6.73483   MPKI: 4.64085
L2C DATA LOAD MPKI: 1.2729
L2C INSTRUCTION LOAD MPKI: 3.36795
L2C RFO       ACCESS:    1093710  HIT:    1004090  MISS:      89620  HIT %:    91.8059  MISS %:    8.19413   MPKI: 0.4481
L2C PREFETCH  ACCESS:    2286251  HIT:    2119107  MISS:     167144  HIT %:    92.6892  MISS %:    7.31083   MPKI: 0.83572
AGUS PREFETCH L1 MISS: 0
L2C DATA PREFETCH MPKI: 0.83572
L2C INSTRUCTION PREFETCH MPKI: 0
L2C WRITEBACK ACCESS:    2288318  HIT:    2256816  MISS:      31502  HIT %:    98.6234  MISS %:    1.37664   MPKI: 0.15751
L2C LOAD TRANSLATION ACCESS:      26168  HIT:      17866  MISS:       8302  HIT %:    68.2742  MISS %:    31.7258   MPKI: 0.04151
L2C TRANSLATION FROM L1D PREFETCHER ACCESS:     432649  HIT:     407749  MISS:      24900  HIT %:    94.2448  MISS %:    5.75524   MPKI: 0.1245
L2C PREFETCH  REQUESTED:          0  ISSUED:          0  USEFUL:      22041  USELESS:     169969
L2C USEFUL LOAD PREFETCHES:      22041 PREFETCH ISSUED TO LOWER LEVEL:     167144  ACCURACY: 13.1868
L2C TIMELY PREFETCHES:      22041 LATE PREFETCHES: 0 DROPPED PREFETCHES: 0
L2C PREFETCHES SAME FILL-ORIGIN LEVEL: 0 DIFFERENT FILL-ORIGIN LEVEL: 0
L2C AVERAGE MISS LATENCY: 29.6844 cycles
L2C RQ	ACCESS:   15334204	FORWARD:          0	MERGED:          0	TO_CACHE:   15334172
L2C WQ	ACCESS:    2288318	FORWARD:        898	MERGED:          0	TO_CACHE:    2288318
L2C PQ	ACCESS:    2287117	FORWARD:          0	MERGED:          0	TO_CACHE:    2286251

L2C Instructions Evicting Data 277465
L2C Translations Evicting Data 15626
L2C Data Evicting Data 236693
L2C Instructions Evicting Instructions 379210
L2C Translations Evicting Instructions 16096
L2C Data Evicting Instructions 260362
L2C Instructions Evicting Translations 16914
L2C Translations Evicting Translations 1480
L2C Data Evicting Translations 14290
L2C Dense regions hint from L2: 0
PSCL5 TOTAL     ACCESS:     350801  HIT:     350801  MISS:          0  HIT %:        100  MISS %:          0   MPKI: 0
PSCL5 LOAD TRANSLATION ACCESS:      25018  HIT:      25018  MISS:          0  HIT %:        100  MISS %:          0   MPKI: 0
PSCL5 TRANSLATION FROM L1D PREFETCHER ACCESS:     325783  HIT:     325783  MISS:          0  HIT %:        100  MISS %:          0   MPKI: 0
PSCL5 PREFETCH  REQUESTED:          0  ISSUED:          0  USEFUL:          0  USELESS:          0
PSCL5 USEFUL LOAD PREFETCHES:          0 PREFETCH ISSUED TO LOWER LEVEL:          0  ACCURACY: -nan
PSCL5 TIMELY PREFETCHES:          0 LATE PREFETCHES: 0 DROPPED PREFETCHES: 0
PSCL5 PREFETCHES SAME FILL-ORIGIN LEVEL: 0 DIFFERENT FILL-ORIGIN LEVEL: 0

PSCL4 TOTAL     ACCESS:     240048  HIT:     240018  MISS:         30  HIT %:    99.9875  MISS %:  0.0124975   MPKI: 0.00015
PSCL4 LOAD TRANSLATION ACCESS:      24136  HIT:      24106  MISS:         30  HIT %:    99.8757  MISS %:   0.124296   MPKI: 0.00015
PSCL4 TRANSLATION FROM L1D PREFETCHER ACCESS:     215912  HIT:     215912  MISS:          0  HIT %:        100  MISS %:          0   MPKI: 0
PSCL4 PREFETCH  REQUESTED:          0  ISSUED:          0  USEFUL:          0  USELESS:          0
PSCL4 USEFUL LOAD PREFETCHES:          0 PREFETCH ISSUED TO LOWER LEVEL:          0  ACCURACY: -nan
PSCL4 TIMELY PREFETCHES:          0 LATE PREFETCHES: 0 DROPPED PREFETCHES: 0
PSCL4 PREFETCHES SAME FILL-ORIGIN LEVEL: 0 DIFFERENT FILL-ORIGIN LEVEL: 0

PSCL3 TOTAL     ACCESS:     277033  HIT:     277003  MISS:         30  HIT %:    99.9892  MISS %:   0.010829   MPKI: 0.00015
PSCL3 LOAD TRANSLATION ACCESS:      24667  HIT:      24637  MISS:         30  HIT %:    99.8784  MISS %:    0.12162   MPKI: 0.00015
PSCL3 TRANSLATION FROM L1D PREFETCHER ACCESS:     252366  HIT:     252366  MISS:          0  HIT %:        100  MISS %:          0   MPKI: 0
PSCL3 PREFETCH  REQUESTED:          0  ISSUED:          0  USEFUL:          0  USELESS:          0
PSCL3 USEFUL LOAD PREFETCHES:          0 PREFETCH ISSUED TO LOWER LEVEL:          0  ACCURACY: -nan
PSCL3 TIMELY PREFETCHES:          0 LATE PREFETCHES: 0 DROPPED PREFETCHES: 0
PSCL3 PREFETCHES SAME FILL-ORIGIN LEVEL: 0 DIFFERENT FILL-ORIGIN LEVEL: 0

PSCL2 TOTAL     ACCESS:     127803  HIT:     126613  MISS:       1190  HIT %:    99.0689  MISS %:   0.931121   MPKI: 0.00595
PSCL2 LOAD TRANSLATION ACCESS:      25110  HIT:      23920  MISS:       1190  HIT %:    95.2609  MISS %:    4.73915   MPKI: 0.00595
PSCL2 TRANSLATION FROM L1D PREFETCHER ACCESS:     102693  HIT:     102693  MISS:          0  HIT %:        100  MISS %:          0   MPKI: 0
PSCL2 PREFETCH  REQUESTED:          0  ISSUED:          0  USEFUL:          0  USELESS:          0
PSCL2 USEFUL LOAD PREFETCHES:          0 PREFETCH ISSUED TO LOWER LEVEL:          0  ACCURACY: -nan
PSCL2 TIMELY PREFETCHES:          0 LATE PREFETCHES: 0 DROPPED PREFETCHES: 0
PSCL2 PREFETCHES SAME FILL-ORIGIN LEVEL: 0 DIFFERENT FILL-ORIGIN LEVEL: 0

LLC TOTAL     ACCESS:    1351351  HIT:    1347973  MISS:       3378  HIT %:      99.75  MISS %:   0.249972   MPKI: 0.01689
LLC LOAD      ACCESS:     928170  HIT:     926964  MISS:       1206  HIT %:    99.8701  MISS %:   0.129933   MPKI: 0.00603
LLC RFO       ACCESS:      89620  HIT:      89466  MISS:        154  HIT %:    99.8282  MISS %:   0.171837   MPKI: 0.00077
LLC PREFETCH  ACCESS:     167144  HIT:     165520  MISS:       1624  HIT %:    99.0284  MISS %:   0.971617   MPKI: 0.00812
AGUS PREFETCH L1 MISS: 0
LLC WRITEBACK ACCESS:     133215  HIT:     133199  MISS:         16  HIT %:     99.988  MISS %:  0.0120107   MPKI: 8e-05
LLC LOAD TRANSLATION ACCESS:       8302  HIT:       8302  MISS:          0  HIT %:        100  MISS %:          0   MPKI: 0
LLC TRANSLATION FROM L1D PREFETCHER ACCESS:      24900  HIT:      24522  MISS:        378  HIT %:    98.4819  MISS %:    1.51807   MPKI: 0.00189
LLC PREFETCH  REQUESTED:          0  ISSUED:          0  USEFUL:       2014  USELESS:        471
LLC USEFUL LOAD PREFETCHES:       2014 PREFETCH ISSUED TO LOWER LEVEL:       1624  ACCURACY: 124.015
LLC TIMELY PREFETCHES:       2014 LATE PREFETCHES: 0 DROPPED PREFETCHES: 0
LLC PREFETCHES SAME FILL-ORIGIN LEVEL: 0 DIFFERENT FILL-ORIGIN LEVEL: 0
LLC AVERAGE MISS LATENCY: 163.024 cycles
LLC RQ	ACCESS:    1050992	FORWARD:          0	MERGED:          0	TO_CACHE:    1050992
LLC WQ	ACCESS:     133215	FORWARD:          0	MERGED:          0	TO_CACHE:     133215
LLC PQ	ACCESS:     167144	FORWARD:          0	MERGED:          0	TO_CACHE:     167144

LLC Dense regions hint to LLC: 0

RAW hits: 1433317
Loads Generated: 47956462
Loads sent to L1D: 46523145
Stores Generated: 26571616
Stores sent to L1D: 26571628
Major fault: 0 Minor fault: 1781
Allocated PAGES: 1781
Completed 

DRAM Statistics
 CHANNEL 0
 RQ ROW_BUFFER_HIT:        227  ROW_BUFFER_MISS:       3135
 DBUS_CONGESTED:          0
 WQ ROW_BUFFER_HIT:          5  ROW_BUFFER_MISS:        237  FULL:          0

 AVG_CONGESTED_CYCLE: -
 All warmup complete: 2
Channel 0 Bank busy for read cycles: 0
Channel 0 Bank busy for write cycles: 0
Channel 0
Rank 0
0banks busy for read cycles: 641156165
0banks busy for write cycles: 219
1banks busy for read cycles: 408259
1banks busy for write cycles: 30486
2banks busy for read cycles: 33084
2banks busy for write cycles: 2894
3banks busy for read cycles: 1759
3banks busy for write cycles: 131
4banks busy for read cycles: 474
4banks busy for write cycles: 0
5banks busy for read cycles: 0
5banks busy for write cycles: 0
6banks busy for read cycles: 0
6banks busy for write cycles: 0
7banks busy for read cycles: 0
7banks busy for write cycles: 0
8banks busy for read cycles: 0
8banks busy for write cycles: 0

CPU 0 Branch Prediction Accuracy: 99.8925% MPKI: 0.1929 Average ROB Occupancy at Mispredict: 32.1997
Branch types
NOT_BRANCH: 164102655 82.0513%
BRANCH_DIRECT_JUMP: 1886938 0.943469%
BRANCH_INDIRECT: 11997161 5.99858%
BRANCH_CONDITIONAL: 12811848 6.40592%
BRANCH_DIRECT_CALL: 3870839 1.93542%
BRANCH_INDIRECT_CALL: 729710 0.364855%
BRANCH_RETURN: 4600610 2.3003%
BRANCH_OTHER: 0 0%

DRAM PAGES: 1048576
Allocated PAGES: 1781
