
*** ChampSim Multicore Out-of-Order Simulator ***

Warmup Instructions: 50000000
Simulation Instructions: 200000000
Number of CPUs: 1
LLC sets: 2048
LLC ways: 16
Off-chip DRAM Size: 4096 MB Channels: 1 Width: 64-bit Data Rate: 6400 MT/s
CPU 0 runs traces/spec2k17/srv_66.champsimtrace.xz
.xz
BTB has LRU replacement policy
ITLB has LRU replacement policy
DTLB has LRU replacement policy
STLB has LRU replacement policy
L1I has LRU replacement policy
L1D has LRU replacement policy
Initialize SRRIP state for L2C
Initialize DRRIP state for LLC
Heartbeat CPU 0 instructions: 10000000 cycles: 2772205 heartbeat IPC: 3.60724 cumulative IPC: 3.60724 (Simulation time: 0 hr 0 min 33 sec) 
Heartbeat CPU 0 instructions: 20000000 cycles: 5534539 heartbeat IPC: 3.62013 cumulative IPC: 3.61367 (Simulation time: 0 hr 1 min 9 sec) 
Heartbeat CPU 0 instructions: 30000002 cycles: 8299290 heartbeat IPC: 3.61696 cumulative IPC: 3.61477 (Simulation time: 0 hr 1 min 45 sec) 
*** Reached end of trace for Core: 0 Repeating trace: traces/spec2k17/srv_66.champsimtrace.xz
Heartbeat CPU 0 instructions: 40000003 cycles: 11066561 heartbeat IPC: 3.61367 cumulative IPC: 3.61449 (Simulation time: 0 hr 2 min 23 sec) 
Heartbeat CPU 0 instructions: 50000001 cycles: 13831251 heartbeat IPC: 3.61704 cumulative IPC: 3.615 (Simulation time: 0 hr 3 min 0 sec) 

Warmup complete CPU 0 instructions: 50000001 cycles: 13831251 (Simulation time: 0 hr 3 min 0 sec) 

Heartbeat CPU 0 instructions: 60000000 cycles: 35281011 heartbeat IPC: 0.466206 cumulative IPC: 0.466206 (Simulation time: 0 hr 3 min 42 sec) 
*** Reached end of trace for Core: 0 Repeating trace: traces/spec2k17/srv_66.champsimtrace.xz
Heartbeat CPU 0 instructions: 70000001 cycles: 57479326 heartbeat IPC: 0.450485 cumulative IPC: 0.45821 (Simulation time: 0 hr 4 min 19 sec) 
Heartbeat CPU 0 instructions: 80000002 cycles: 78922823 heartbeat IPC: 0.466342 cumulative IPC: 0.460889 (Simulation time: 0 hr 4 min 57 sec) 
Heartbeat CPU 0 instructions: 90000000 cycles: 100259923 heartbeat IPC: 0.468667 cumulative IPC: 0.462809 (Simulation time: 0 hr 5 min 34 sec) 
*** Reached end of trace for Core: 0 Repeating trace: traces/spec2k17/srv_66.champsimtrace.xz
Heartbeat CPU 0 instructions: 100000001 cycles: 122421433 heartbeat IPC: 0.451233 cumulative IPC: 0.460447 (Simulation time: 0 hr 6 min 11 sec) 
Heartbeat CPU 0 instructions: 110000000 cycles: 143663666 heartbeat IPC: 0.47076 cumulative IPC: 0.462134 (Simulation time: 0 hr 6 min 48 sec) 
Heartbeat CPU 0 instructions: 120000002 cycles: 165184755 heartbeat IPC: 0.464661 cumulative IPC: 0.462493 (Simulation time: 0 hr 7 min 25 sec) 
*** Reached end of trace for Core: 0 Repeating trace: traces/spec2k17/srv_66.champsimtrace.xz
Heartbeat CPU 0 instructions: 130000003 cycles: 187181214 heartbeat IPC: 0.454619 cumulative IPC: 0.461494 (Simulation time: 0 hr 8 min 2 sec) 
Heartbeat CPU 0 instructions: 140000002 cycles: 208479682 heartbeat IPC: 0.469517 cumulative IPC: 0.462372 (Simulation time: 0 hr 8 min 40 sec) 
Heartbeat CPU 0 instructions: 150000003 cycles: 230045599 heartbeat IPC: 0.463695 cumulative IPC: 0.462504 (Simulation time: 0 hr 9 min 19 sec) 
*** Reached end of trace for Core: 0 Repeating trace: traces/spec2k17/srv_66.champsimtrace.xz
Heartbeat CPU 0 instructions: 160000002 cycles: 251714928 heartbeat IPC: 0.461482 cumulative IPC: 0.462411 (Simulation time: 0 hr 9 min 56 sec) 
Heartbeat CPU 0 instructions: 170000003 cycles: 273202089 heartbeat IPC: 0.465394 cumulative IPC: 0.462658 (Simulation time: 0 hr 10 min 34 sec) 
Heartbeat CPU 0 instructions: 180000002 cycles: 294775997 heartbeat IPC: 0.463523 cumulative IPC: 0.462724 (Simulation time: 0 hr 11 min 11 sec) 
*** Reached end of trace for Core: 0 Repeating trace: traces/spec2k17/srv_66.champsimtrace.xz
Heartbeat CPU 0 instructions: 190000003 cycles: 316398898 heartbeat IPC: 0.462473 cumulative IPC: 0.462706 (Simulation time: 0 hr 11 min 48 sec) 
Heartbeat CPU 0 instructions: 200000002 cycles: 337777259 heartbeat IPC: 0.467763 cumulative IPC: 0.46304 (Simulation time: 0 hr 12 min 25 sec) 
Heartbeat CPU 0 instructions: 210000003 cycles: 359437790 heartbeat IPC: 0.461669 cumulative IPC: 0.462954 (Simulation time: 0 hr 13 min 2 sec) 
*** Reached end of trace for Core: 0 Repeating trace: traces/spec2k17/srv_66.champsimtrace.xz
Heartbeat CPU 0 instructions: 220000000 cycles: 380876305 heartbeat IPC: 0.46645 cumulative IPC: 0.463158 (Simulation time: 0 hr 13 min 38 sec) 
Heartbeat CPU 0 instructions: 230000002 cycles: 402335055 heartbeat IPC: 0.46601 cumulative IPC: 0.463316 (Simulation time: 0 hr 14 min 13 sec) 
Heartbeat CPU 0 instructions: 240000003 cycles: 423913893 heartbeat IPC: 0.463417 cumulative IPC: 0.463321 (Simulation time: 0 hr 14 min 46 sec) 
*** Reached end of trace for Core: 0 Repeating trace: traces/spec2k17/srv_66.champsimtrace.xz
Heartbeat CPU 0 instructions: 250000003 cycles: 445208146 heartbeat IPC: 0.46961 cumulative IPC: 0.463632 (Simulation time: 0 hr 15 min 16 sec) 
Finished CPU 0 instructions: 200000002 cycles: 431376895 cumulative IPC: 0.463632 (Simulation time: 0 hr 15 min 16 sec) 

ChampSim completed all CPUs

Region of Interest Statistics

CPU 0 cumulative IPC: 0.463632 instructions: 200000002 cycles: 431376895
ITLB TOTAL     ACCESS:   31543056  HIT:   30749294  MISS:     793762  HIT %:    97.4836  MISS %:    2.51644   MPKI: 3.96881
ITLB LOAD TRANSLATION ACCESS:   31543056  HIT:   30749294  MISS:     793762  HIT %:    97.4836  MISS %:    2.51644   MPKI: 3.96881
ITLB PREFETCH  REQUESTED:          0  ISSUED:          0  USEFUL:          0  USELESS:          0
ITLB USEFUL LOAD PREFETCHES:          0 PREFETCH ISSUED TO LOWER LEVEL:          0  ACCURACY: -nan
ITLB TIMELY PREFETCHES:          0 LATE PREFETCHES: 0 DROPPED PREFETCHES: 0
ITLB PREFETCHES SAME FILL-ORIGIN LEVEL: 0 DIFFERENT FILL-ORIGIN LEVEL: 0
ITLB AVERAGE MISS LATENCY: 14.0019 cycles
ITLB RQ	ACCESS:   38319457	FORWARD:          0	MERGED:    6582147	TO_CACHE:   31737310

DTLB TOTAL     ACCESS:   36999508  HIT:   34430430  MISS:    2569078  HIT %:    93.0565  MISS %:    6.94355   MPKI: 12.8454
DTLB LOAD TRANSLATION ACCESS:   36999508  HIT:   34430430  MISS:    2569078  HIT %:    93.0565  MISS %:    6.94355   MPKI: 12.8454
DTLB PREFETCH  REQUESTED:          0  ISSUED:          0  USEFUL:          0  USELESS:          0
DTLB USEFUL LOAD PREFETCHES:          0 PREFETCH ISSUED TO LOWER LEVEL:          0  ACCURACY: -nan
DTLB TIMELY PREFETCHES:          0 LATE PREFETCHES: 0 DROPPED PREFETCHES: 0
DTLB PREFETCHES SAME FILL-ORIGIN LEVEL: 0 DIFFERENT FILL-ORIGIN LEVEL: 0
DTLB AVERAGE MISS LATENCY: 13.13 cycles
DTLB RQ	ACCESS:   47517511	FORWARD:          0	MERGED:   10381106	TO_CACHE:   37136405

STLB TOTAL     ACCESS:   10929799  HIT:   10582799  MISS:     347000  HIT %:    96.8252  MISS %:    3.17481   MPKI: 1.735
STLB LOAD TRANSLATION ACCESS:    3362840  HIT:    3025252  MISS:     337588  HIT %:    89.9612  MISS %:    10.0388   MPKI: 1.68794
STLB TRANSLATION FROM L1D PREFETCHER ACCESS:    7566959  HIT:    7557547  MISS:       9412  HIT %:    99.8756  MISS %:   0.124383   MPKI: 0.04706
STLB PREFETCH  REQUESTED:          0  ISSUED:          0  USEFUL:       7917  USELESS:       1492
STLB USEFUL LOAD PREFETCHES:       7917 PREFETCH ISSUED TO LOWER LEVEL:          0  ACCURACY: inf
STLB TIMELY PREFETCHES:       7917 LATE PREFETCHES: 2226 DROPPED PREFETCHES: 240628
STLB PREFETCHES SAME FILL-ORIGIN LEVEL: 0 DIFFERENT FILL-ORIGIN LEVEL: 0
STLB AVERAGE MISS LATENCY: 45.8395 cycles
STLB RQ	ACCESS:   12778116	FORWARD:          0	MERGED:    1603818	TO_CACHE:   11174298

STLB Hit, L1D data hit: 0
STLB Hit, L2C data hit: 0
STLB Hit, LLC data hit: 0
STLB Hit, LLC data miss: 0
STLB STLB hints to L2: 0
L1D TOTAL     ACCESS:   55970473  HIT:   53440847  MISS:    2529626  HIT %:    95.4804  MISS %:    4.51957   MPKI: 12.6481
L1D LOAD      ACCESS:   27410020  HIT:   25410078  MISS:    1999942  HIT %:    92.7036  MISS %:    7.29639   MPKI: 9.99971
L1D RFO       ACCESS:   19571166  HIT:   19246831  MISS:     324335  HIT %:    98.3428  MISS %:    1.65721   MPKI: 1.62167
L1D PREFETCH  ACCESS:    8989287  HIT:    8783938  MISS:     205349  HIT %:    97.7156  MISS %:    2.28437   MPKI: 1.02674
AGUS PREFETCH L1 MISS: 0
L1D PREFETCH  REQUESTED:   21139326  ISSUED:   21138431  USEFUL:     128803  USELESS:      76534
L1D USEFUL LOAD PREFETCHES:     128803 PREFETCH ISSUED TO LOWER LEVEL:     268004  ACCURACY: 48.0601
L1D TIMELY PREFETCHES:     128803 LATE PREFETCHES: 62464 DROPPED PREFETCHES: 253537
L1D PREFETCHES SAME FILL-ORIGIN LEVEL: 268004 DIFFERENT FILL-ORIGIN LEVEL: 0
L1D AVERAGE MISS LATENCY: 7.38874e+06 cycles
L1D RQ	ACCESS:   42112503	FORWARD:          0	MERGED:   14332258	TO_CACHE:   27541981
L1D WQ	ACCESS:   20281804	FORWARD:     279498	MERGED:     306274	TO_CACHE:   19975530
L1D PQ	ACCESS:   11723155	FORWARD:          0	MERGED:    2266645	TO_CACHE:    9415276

L1D UNIQUE REGIONS ACCESSED: 0
L1D REGIONS CONFLICTS: 0
L1D Cross Page Prefetch Requests: 8226680
L1D Same Page Prefetch Requests: 5321521
L1D ROI Sum of L1D PQ occupancy: 140875499
L1D PREFETCHES PUSHED FROM L2C: 0
L1I TOTAL     ACCESS:   36538223  HIT:   31499759  MISS:    5038464  HIT %:    86.2104  MISS %:    13.7896   MPKI: 25.1923
L1I LOAD      ACCESS:   36538223  HIT:   31499759  MISS:    5038464  HIT %:    86.2104  MISS %:    13.7896   MPKI: 25.1923
L1I PREFETCH  REQUESTED:          0  ISSUED:          0  USEFUL:          0  USELESS:          0
L1I USEFUL LOAD PREFETCHES:          0 PREFETCH ISSUED TO LOWER LEVEL:          0  ACCURACY: -nan
L1I TIMELY PREFETCHES:          0 LATE PREFETCHES: 0 DROPPED PREFETCHES: 0
L1I PREFETCHES SAME FILL-ORIGIN LEVEL: 0 DIFFERENT FILL-ORIGIN LEVEL: 0
L1I AVERAGE MISS LATENCY: 25.1558 cycles
L1I RQ	ACCESS:   57205374	FORWARD:          0	MERGED:   18885917	TO_CACHE:   38319457

BTB TOTAL     ACCESS:   22223393  HIT:   18065540  MISS:    4157853  HIT %:    81.2906  MISS %:    18.7094   MPKI: 20.7893
BTB BRANCH_DIRECT_JUMP	ACCESS:    1718257  HIT:    1473997  MISS:     244260
BTB BRANCH_INDIRECT	ACCESS:    9436323  HIT:    7433911  MISS:    2002412
BTB BRANCH_CONDITIONAL	ACCESS:    4754690  HIT:    4374903  MISS:     379787
BTB BRANCH_DIRECT_CALL	ACCESS:    2480173  HIT:    2032253  MISS:     447920
BTB BRANCH_INDIRECT_CALL	ACCESS:     676469  HIT:     636836  MISS:      39633
BTB BRANCH_RETURN	ACCESS:    3157481  HIT:    2113640  MISS:    1043841
BTB BRANCH_OTHER ACCESS:          0  HIT:          0  MISS:          0

L2C TOTAL     ACCESS:    9347032  HIT:    6213435  MISS:    3133597  HIT %:     66.475  MISS %:     33.525   MPKI: 15.668
L2C LOAD      ACCESS:    6975886  HIT:    4327636  MISS:    2648250  HIT %:    62.0371  MISS %:    37.9629   MPKI: 13.2412
L2C DATA LOAD MPKI: 4.37061
L2C INSTRUCTION LOAD MPKI: 8.87064
L2C RFO       ACCESS:     324144  HIT:     180228  MISS:     143916  HIT %:    55.6012  MISS %:    44.3988   MPKI: 0.71958
L2C PREFETCH  ACCESS:     267975  HIT:     185841  MISS:      82134  HIT %:    69.3501  MISS %:    30.6499   MPKI: 0.41067
AGUS PREFETCH L1 MISS: 0
L2C DATA PREFETCH MPKI: 0.41067
L2C INSTRUCTION PREFETCH MPKI: 0
L2C WRITEBACK ACCESS:    1010210  HIT:     954027  MISS:      56183  HIT %:    94.4385  MISS %:    5.56152   MPKI: 0.280915
L2C LOAD TRANSLATION ACCESS:     443623  HIT:     273155  MISS:     170468  HIT %:    61.5737  MISS %:    38.4263   MPKI: 0.85234
L2C TRANSLATION FROM L1D PREFETCHER ACCESS:     325194  HIT:     292548  MISS:      32646  HIT %:    89.9611  MISS %:    10.0389   MPKI: 0.16323
L2C PREFETCH  REQUESTED:          0  ISSUED:          0  USEFUL:      26787  USELESS:      87823
L2C USEFUL LOAD PREFETCHES:      26787 PREFETCH ISSUED TO LOWER LEVEL:      82134  ACCURACY: 32.6138
L2C TIMELY PREFETCHES:      26787 LATE PREFETCHES: 0 DROPPED PREFETCHES: 0
L2C PREFETCHES SAME FILL-ORIGIN LEVEL: 0 DIFFERENT FILL-ORIGIN LEVEL: 0
L2C AVERAGE MISS LATENCY: 44.6615 cycles
L2C RQ	ACCESS:    8068904	FORWARD:          0	MERGED:          0	TO_CACHE:    8068848
L2C WQ	ACCESS:    1010210	FORWARD:         85	MERGED:          0	TO_CACHE:    1010210
L2C PQ	ACCESS:     268004	FORWARD:          0	MERGED:          0	TO_CACHE:     267975

L2C Instructions Evicting Data 627033
L2C Translations Evicting Data 78900
L2C Data Evicting Data 428605
L2C Instructions Evicting Instructions 1037399
L2C Translations Evicting Instructions 108723
L2C Data Evicting Instructions 596781
L2C Instructions Evicting Translations 109696
L2C Translations Evicting Translations 15491
L2C Data Evicting Translations 74786
L2C Dense regions hint from L2: 0
PSCL5 TOTAL     ACCESS:     577904  HIT:     577904  MISS:          0  HIT %:        100  MISS %:          0   MPKI: 0
PSCL5 LOAD TRANSLATION ACCESS:     335362  HIT:     335362  MISS:          0  HIT %:        100  MISS %:          0   MPKI: 0
PSCL5 TRANSLATION FROM L1D PREFETCHER ACCESS:     242542  HIT:     242542  MISS:          0  HIT %:        100  MISS %:          0   MPKI: 0
PSCL5 PREFETCH  REQUESTED:          0  ISSUED:          0  USEFUL:          0  USELESS:          0
PSCL5 USEFUL LOAD PREFETCHES:          0 PREFETCH ISSUED TO LOWER LEVEL:          0  ACCURACY: -nan
PSCL5 TIMELY PREFETCHES:          0 LATE PREFETCHES: 0 DROPPED PREFETCHES: 0
PSCL5 PREFETCHES SAME FILL-ORIGIN LEVEL: 0 DIFFERENT FILL-ORIGIN LEVEL: 0

PSCL4 TOTAL     ACCESS:     526025  HIT:     524740  MISS:       1285  HIT %:    99.7557  MISS %:   0.244285   MPKI: 0.006425
PSCL4 LOAD TRANSLATION ACCESS:     325966  HIT:     324681  MISS:       1285  HIT %:    99.6058  MISS %:   0.394213   MPKI: 0.006425
PSCL4 TRANSLATION FROM L1D PREFETCHER ACCESS:     200059  HIT:     200059  MISS:          0  HIT %:        100  MISS %:          0   MPKI: 0
PSCL4 PREFETCH  REQUESTED:          0  ISSUED:          0  USEFUL:          0  USELESS:          0
PSCL4 USEFUL LOAD PREFETCHES:          0 PREFETCH ISSUED TO LOWER LEVEL:          0  ACCURACY: -nan
PSCL4 TIMELY PREFETCHES:          0 LATE PREFETCHES: 0 DROPPED PREFETCHES: 0
PSCL4 PREFETCHES SAME FILL-ORIGIN LEVEL: 0 DIFFERENT FILL-ORIGIN LEVEL: 0

PSCL3 TOTAL     ACCESS:     526073  HIT:     524788  MISS:       1285  HIT %:    99.7557  MISS %:   0.244263   MPKI: 0.006425
PSCL3 LOAD TRANSLATION ACCESS:     332599  HIT:     331314  MISS:       1285  HIT %:    99.6136  MISS %:   0.386351   MPKI: 0.006425
PSCL3 TRANSLATION FROM L1D PREFETCHER ACCESS:     193474  HIT:     193474  MISS:          0  HIT %:        100  MISS %:          0   MPKI: 0
PSCL3 PREFETCH  REQUESTED:          0  ISSUED:          0  USEFUL:          0  USELESS:          0
PSCL3 USEFUL LOAD PREFETCHES:          0 PREFETCH ISSUED TO LOWER LEVEL:          0  ACCURACY: -nan
PSCL3 TIMELY PREFETCHES:          0 LATE PREFETCHES: 0 DROPPED PREFETCHES: 0
PSCL3 PREFETCHES SAME FILL-ORIGIN LEVEL: 0 DIFFERENT FILL-ORIGIN LEVEL: 0

PSCL2 TOTAL     ACCESS:     368518  HIT:     256941  MISS:     111577  HIT %:    69.7228  MISS %:    30.2772   MPKI: 0.557885
PSCL2 LOAD TRANSLATION ACCESS:     341128  HIT:     229551  MISS:     111577  HIT %:    67.2917  MISS %:    32.7083   MPKI: 0.557885
PSCL2 TRANSLATION FROM L1D PREFETCHER ACCESS:      27390  HIT:      27390  MISS:          0  HIT %:        100  MISS %:          0   MPKI: 0
PSCL2 PREFETCH  REQUESTED:          0  ISSUED:          0  USEFUL:          0  USELESS:          0
PSCL2 USEFUL LOAD PREFETCHES:          0 PREFETCH ISSUED TO LOWER LEVEL:          0  ACCURACY: -nan
PSCL2 TIMELY PREFETCHES:          0 LATE PREFETCHES: 0 DROPPED PREFETCHES: 0
PSCL2 PREFETCHES SAME FILL-ORIGIN LEVEL: 0 DIFFERENT FILL-ORIGIN LEVEL: 0

LLC TOTAL     ACCESS:    3510436  HIT:    3195065  MISS:     315371  HIT %:    91.0162  MISS %:    8.98381   MPKI: 1.57685
LLC LOAD      ACCESS:    2648249  HIT:    2406611  MISS:     241638  HIT %:    90.8756  MISS %:    9.12444   MPKI: 1.20819
LLC RFO       ACCESS:     143912  HIT:      96901  MISS:      47011  HIT %:    67.3335  MISS %:    32.6665   MPKI: 0.235055
LLC PREFETCH  ACCESS:      82134  HIT:      71657  MISS:      10477  HIT %:     87.244  MISS %:     12.756   MPKI: 0.052385
AGUS PREFETCH L1 MISS: 0
LLC WRITEBACK ACCESS:     433027  HIT:     431049  MISS:       1978  HIT %:    99.5432  MISS %:   0.456784   MPKI: 0.00989
LLC LOAD TRANSLATION ACCESS:     170468  HIT:     157999  MISS:      12469  HIT %:    92.6854  MISS %:    7.31457   MPKI: 0.062345
LLC TRANSLATION FROM L1D PREFETCHER ACCESS:      32646  HIT:      30848  MISS:       1798  HIT %:    94.4924  MISS %:    5.50757   MPKI: 0.00899
LLC PREFETCH  REQUESTED:          0  ISSUED:          0  USEFUL:       1880  USELESS:      10074
LLC USEFUL LOAD PREFETCHES:       1880 PREFETCH ISSUED TO LOWER LEVEL:      10477  ACCURACY: 17.9441
LLC TIMELY PREFETCHES:       1880 LATE PREFETCHES: 0 DROPPED PREFETCHES: 0
LLC PREFETCHES SAME FILL-ORIGIN LEVEL: 0 DIFFERENT FILL-ORIGIN LEVEL: 0
LLC AVERAGE MISS LATENCY: 151.021 cycles
LLC RQ	ACCESS:    2995281	FORWARD:          0	MERGED:          0	TO_CACHE:    2995276
LLC WQ	ACCESS:     433027	FORWARD:          5	MERGED:          0	TO_CACHE:     433027
LLC PQ	ACCESS:      82134	FORWARD:          0	MERGED:          0	TO_CACHE:      82134

LLC Dense regions hint to LLC: 0

RAW hits: 2855737
Loads Generated: 44968240
Loads sent to L1D: 42112503
Stores Generated: 20281799
Stores sent to L1D: 20281804
Major fault: 0 Minor fault: 6269
Allocated PAGES: 6269
Completed 

DRAM Statistics
 CHANNEL 0
 RQ ROW_BUFFER_HIT:      62088  ROW_BUFFER_MISS:     251301
 DBUS_CONGESTED:        209
 WQ ROW_BUFFER_HIT:      31527  ROW_BUFFER_MISS:     187703  FULL:          0

 AVG_CONGESTED_CYCLE: 4
 All warmup complete: 2
Channel 0 Bank busy for read cycles: 0
Channel 0 Bank busy for write cycles: 0
Channel 0
Rank 0
0banks busy for read cycles: 372540338
0banks busy for write cycles: 122749
1banks busy for read cycles: 28697953
1banks busy for write cycles: 17290308
2banks busy for read cycles: 3934925
2banks busy for write cycles: 4242732
3banks busy for read cycles: 563363
3banks busy for write cycles: 1456073
4banks busy for read cycles: 217457
4banks busy for write cycles: 761602
5banks busy for read cycles: 95041
5banks busy for write cycles: 434650
6banks busy for read cycles: 70335
6banks busy for write cycles: 302479
7banks busy for read cycles: 52180
7banks busy for write cycles: 279831
8banks busy for read cycles: 51297
8banks busy for write cycles: 263583

CPU 0 Branch Prediction Accuracy: 99.8407% MPKI: 0.28518 Average ROB Occupancy at Mispredict: 48.2342
Branch types
NOT_BRANCH: 164201241 82.1006%
BRANCH_DIRECT_JUMP: 1718257 0.859128%
BRANCH_INDIRECT: 9436323 4.71816%
BRANCH_CONDITIONAL: 18329755 9.16488%
BRANCH_DIRECT_CALL: 2480173 1.24009%
BRANCH_INDIRECT_CALL: 676469 0.338234%
BRANCH_RETURN: 3157481 1.57874%
BRANCH_OTHER: 0 0%

DRAM PAGES: 1048576
Allocated PAGES: 6269
