
*** ChampSim Multicore Out-of-Order Simulator ***

Warmup Instructions: 50000000
Simulation Instructions: 200000000
Number of CPUs: 1
LLC sets: 2048
LLC ways: 16
Off-chip DRAM Size: 4096 MB Channels: 1 Width: 64-bit Data Rate: 6400 MT/s
CPU 0 runs traces/spec2k17/srv_63.champsimtrace.xz
.xz
BTB has LRU replacement policy
ITLB has LRU replacement policy
DTLB has LRU replacement policy
STLB has LRU replacement policy
L1I has LRU replacement policy
L1D has LRU replacement policy
Initialize SRRIP state for L2C
Initialize DRRIP state for LLC
Heartbeat CPU 0 instructions: 10000000 cycles: 2773001 heartbeat IPC: 3.6062 cumulative IPC: 3.6062 (Simulation time: 0 hr 0 min 33 sec) 
Heartbeat CPU 0 instructions: 20000003 cycles: 5541053 heartbeat IPC: 3.61265 cumulative IPC: 3.60942 (Simulation time: 0 hr 1 min 2 sec) 
Heartbeat CPU 0 instructions: 30000003 cycles: 8309768 heartbeat IPC: 3.61178 cumulative IPC: 3.61021 (Simulation time: 0 hr 1 min 30 sec) 
*** Reached end of trace for Core: 0 Repeating trace: traces/spec2k17/srv_63.champsimtrace.xz
Heartbeat CPU 0 instructions: 40000001 cycles: 11076282 heartbeat IPC: 3.61466 cumulative IPC: 3.61132 (Simulation time: 0 hr 1 min 54 sec) 
Heartbeat CPU 0 instructions: 50000001 cycles: 13843953 heartbeat IPC: 3.61315 cumulative IPC: 3.61169 (Simulation time: 0 hr 2 min 19 sec) 

Warmup complete CPU 0 instructions: 50000001 cycles: 13843953 (Simulation time: 0 hr 2 min 19 sec) 

Heartbeat CPU 0 instructions: 60000000 cycles: 36459934 heartbeat IPC: 0.442165 cumulative IPC: 0.442165 (Simulation time: 0 hr 2 min 58 sec) 
*** Reached end of trace for Core: 0 Repeating trace: traces/spec2k17/srv_63.champsimtrace.xz
Heartbeat CPU 0 instructions: 70000001 cycles: 58452010 heartbeat IPC: 0.454709 cumulative IPC: 0.44835 (Simulation time: 0 hr 3 min 54 sec) 
Heartbeat CPU 0 instructions: 80000001 cycles: 80609964 heartbeat IPC: 0.451305 cumulative IPC: 0.44933 (Simulation time: 0 hr 4 min 36 sec) 
Heartbeat CPU 0 instructions: 90000000 cycles: 102986180 heartbeat IPC: 0.446903 cumulative IPC: 0.448721 (Simulation time: 0 hr 5 min 12 sec) 
*** Reached end of trace for Core: 0 Repeating trace: traces/spec2k17/srv_63.champsimtrace.xz
Heartbeat CPU 0 instructions: 100000002 cycles: 125173044 heartbeat IPC: 0.450717 cumulative IPC: 0.449119 (Simulation time: 0 hr 5 min 48 sec) 
Heartbeat CPU 0 instructions: 110000000 cycles: 147122525 heartbeat IPC: 0.455592 cumulative IPC: 0.450185 (Simulation time: 0 hr 6 min 23 sec) 
Heartbeat CPU 0 instructions: 120000000 cycles: 169266649 heartbeat IPC: 0.451587 cumulative IPC: 0.450385 (Simulation time: 0 hr 6 min 59 sec) 
*** Reached end of trace for Core: 0 Repeating trace: traces/spec2k17/srv_63.champsimtrace.xz
Heartbeat CPU 0 instructions: 130000000 cycles: 191576773 heartbeat IPC: 0.448227 cumulative IPC: 0.450114 (Simulation time: 0 hr 7 min 36 sec) 
Heartbeat CPU 0 instructions: 140000003 cycles: 213579989 heartbeat IPC: 0.454479 cumulative IPC: 0.450595 (Simulation time: 0 hr 8 min 18 sec) 
Heartbeat CPU 0 instructions: 150000003 cycles: 235429592 heartbeat IPC: 0.457674 cumulative IPC: 0.451293 (Simulation time: 0 hr 8 min 54 sec) 
*** Reached end of trace for Core: 0 Repeating trace: traces/spec2k17/srv_63.champsimtrace.xz
Heartbeat CPU 0 instructions: 160000000 cycles: 257981483 heartbeat IPC: 0.443422 cumulative IPC: 0.450566 (Simulation time: 0 hr 9 min 30 sec) 
Heartbeat CPU 0 instructions: 170000003 cycles: 279807759 heartbeat IPC: 0.458163 cumulative IPC: 0.451189 (Simulation time: 0 hr 10 min 5 sec) 
Heartbeat CPU 0 instructions: 180000003 cycles: 301697636 heartbeat IPC: 0.456832 cumulative IPC: 0.451618 (Simulation time: 0 hr 10 min 40 sec) 
*** Reached end of trace for Core: 0 Repeating trace: traces/spec2k17/srv_63.champsimtrace.xz
Heartbeat CPU 0 instructions: 190000000 cycles: 324155111 heartbeat IPC: 0.445286 cumulative IPC: 0.45116 (Simulation time: 0 hr 11 min 16 sec) 
Heartbeat CPU 0 instructions: 200000000 cycles: 345977196 heartbeat IPC: 0.458251 cumulative IPC: 0.451626 (Simulation time: 0 hr 11 min 51 sec) 
Heartbeat CPU 0 instructions: 210000002 cycles: 367702816 heartbeat IPC: 0.460286 cumulative IPC: 0.452158 (Simulation time: 0 hr 12 min 26 sec) 
*** Reached end of trace for Core: 0 Repeating trace: traces/spec2k17/srv_63.champsimtrace.xz
Heartbeat CPU 0 instructions: 220000000 cycles: 390108302 heartbeat IPC: 0.446319 cumulative IPC: 0.45181 (Simulation time: 0 hr 13 min 0 sec) 
Heartbeat CPU 0 instructions: 230000001 cycles: 411834765 heartbeat IPC: 0.460268 cumulative IPC: 0.452272 (Simulation time: 0 hr 13 min 35 sec) 
Heartbeat CPU 0 instructions: 240000002 cycles: 433944737 heartbeat IPC: 0.452285 cumulative IPC: 0.452272 (Simulation time: 0 hr 14 min 10 sec) 
*** Reached end of trace for Core: 0 Repeating trace: traces/spec2k17/srv_63.champsimtrace.xz
Heartbeat CPU 0 instructions: 250000000 cycles: 455940410 heartbeat IPC: 0.454635 cumulative IPC: 0.45239 (Simulation time: 0 hr 14 min 43 sec) 
Finished CPU 0 instructions: 200000001 cycles: 442096458 cumulative IPC: 0.45239 (Simulation time: 0 hr 14 min 43 sec) 

ChampSim completed all CPUs

Region of Interest Statistics

CPU 0 cumulative IPC: 0.45239 instructions: 200000001 cycles: 442096458
ITLB TOTAL     ACCESS:   31327115  HIT:   30546537  MISS:     780578  HIT %:    97.5083  MISS %:     2.4917   MPKI: 3.90289
ITLB LOAD TRANSLATION ACCESS:   31327115  HIT:   30546537  MISS:     780578  HIT %:    97.5083  MISS %:     2.4917   MPKI: 3.90289
ITLB PREFETCH  REQUESTED:          0  ISSUED:          0  USEFUL:          0  USELESS:          0
ITLB USEFUL LOAD PREFETCHES:          0 PREFETCH ISSUED TO LOWER LEVEL:          0  ACCURACY: -nan
ITLB TIMELY PREFETCHES:          0 LATE PREFETCHES: 0 DROPPED PREFETCHES: 0
ITLB PREFETCHES SAME FILL-ORIGIN LEVEL: 0 DIFFERENT FILL-ORIGIN LEVEL: 0
ITLB AVERAGE MISS LATENCY: 13.9143 cycles
ITLB RQ	ACCESS:   38371251	FORWARD:          0	MERGED:    6848109	TO_CACHE:   31523142

DTLB TOTAL     ACCESS:   37060616  HIT:   34443662  MISS:    2616954  HIT %:    92.9387  MISS %:    7.06128   MPKI: 13.0848
DTLB LOAD TRANSLATION ACCESS:   37060616  HIT:   34443662  MISS:    2616954  HIT %:    92.9387  MISS %:    7.06128   MPKI: 13.0848
DTLB PREFETCH  REQUESTED:          0  ISSUED:          0  USEFUL:          0  USELESS:          0
DTLB USEFUL LOAD PREFETCHES:          0 PREFETCH ISSUED TO LOWER LEVEL:          0  ACCURACY: -nan
DTLB TIMELY PREFETCHES:          0 LATE PREFETCHES: 0 DROPPED PREFETCHES: 0
DTLB PREFETCHES SAME FILL-ORIGIN LEVEL: 0 DIFFERENT FILL-ORIGIN LEVEL: 0
DTLB AVERAGE MISS LATENCY: 13.1212 cycles
DTLB RQ	ACCESS:   47579657	FORWARD:          0	MERGED:   10379215	TO_CACHE:   37200442

STLB TOTAL     ACCESS:   11027736  HIT:   10669358  MISS:     358378  HIT %:    96.7502  MISS %:    3.24979   MPKI: 1.79189
STLB LOAD TRANSLATION ACCESS:    3397532  HIT:    3048525  MISS:     349007  HIT %:    89.7276  MISS %:    10.2724   MPKI: 1.74503
STLB TRANSLATION FROM L1D PREFETCHER ACCESS:    7630204  HIT:    7620833  MISS:       9371  HIT %:    99.8772  MISS %:   0.122815   MPKI: 0.046855
STLB PREFETCH  REQUESTED:          0  ISSUED:          0  USEFUL:       8209  USELESS:       1160
STLB USEFUL LOAD PREFETCHES:       8209 PREFETCH ISSUED TO LOWER LEVEL:          0  ACCURACY: inf
STLB TIMELY PREFETCHES:       8209 LATE PREFETCHES: 2531 DROPPED PREFETCHES: 203740
STLB PREFETCHES SAME FILL-ORIGIN LEVEL: 0 DIFFERENT FILL-ORIGIN LEVEL: 0
STLB AVERAGE MISS LATENCY: 44.8149 cycles
STLB RQ	ACCESS:   12916197	FORWARD:          0	MERGED:    1680634	TO_CACHE:   11235563

STLB Hit, L1D data hit: 0
STLB Hit, L2C data hit: 0
STLB Hit, LLC data hit: 0
STLB Hit, LLC data miss: 0
STLB STLB hints to L2: 0
L1D TOTAL     ACCESS:   56199568  HIT:   53663946  MISS:    2535622  HIT %:    95.4882  MISS %:    4.51182   MPKI: 12.6781
L1D LOAD      ACCESS:   27503455  HIT:   25500762  MISS:    2002693  HIT %:    92.7184  MISS %:    7.28161   MPKI: 10.0135
L1D RFO       ACCESS:   19566274  HIT:   19239730  MISS:     326544  HIT %:    98.3311  MISS %:    1.66891   MPKI: 1.63272
L1D PREFETCH  ACCESS:    9129839  HIT:    8923454  MISS:     206385  HIT %:    97.7394  MISS %:    2.26055   MPKI: 1.03192
AGUS PREFETCH L1 MISS: 0
L1D PREFETCH  REQUESTED:   21424353  ISSUED:   21423793  USEFUL:     134215  USELESS:      72153
L1D USEFUL LOAD PREFETCHES:     134215 PREFETCH ISSUED TO LOWER LEVEL:     270266  ACCURACY: 49.6603
L1D TIMELY PREFETCHES:     134215 LATE PREFETCHES: 63587 DROPPED PREFETCHES: 209778
L1D PREFETCHES SAME FILL-ORIGIN LEVEL: 270266 DIFFERENT FILL-ORIGIN LEVEL: 0
L1D AVERAGE MISS LATENCY: 7.69274e+06 cycles
L1D RQ	ACCESS:   42095852	FORWARD:          0	MERGED:   14219482	TO_CACHE:   27626898
L1D WQ	ACCESS:   20271818	FORWARD:     295941	MERGED:     319059	TO_CACHE:   19952759
L1D PQ	ACCESS:   11905128	FORWARD:          0	MERGED:    2339994	TO_CACHE:    9518665

L1D UNIQUE REGIONS ACCESSED: 0
L1D REGIONS CONFLICTS: 0
L1D Cross Page Prefetch Requests: 8195657
L1D Same Page Prefetch Requests: 5545435
L1D ROI Sum of L1D PQ occupancy: 139582179
L1D PREFETCHES PUSHED FROM L2C: 0
L1I TOTAL     ACCESS:   36573803  HIT:   31429284  MISS:    5144519  HIT %:    85.9339  MISS %:    14.0661   MPKI: 25.7226
L1I LOAD      ACCESS:   36573803  HIT:   31429284  MISS:    5144519  HIT %:    85.9339  MISS %:    14.0661   MPKI: 25.7226
L1I PREFETCH  REQUESTED:          0  ISSUED:          0  USEFUL:          0  USELESS:          0
L1I USEFUL LOAD PREFETCHES:          0 PREFETCH ISSUED TO LOWER LEVEL:          0  ACCURACY: -nan
L1I TIMELY PREFETCHES:          0 LATE PREFETCHES: 0 DROPPED PREFETCHES: 0
L1I PREFETCHES SAME FILL-ORIGIN LEVEL: 0 DIFFERENT FILL-ORIGIN LEVEL: 0
L1I AVERAGE MISS LATENCY: 25.3269 cycles
L1I RQ	ACCESS:   57231507	FORWARD:          0	MERGED:   18860256	TO_CACHE:   38371251

BTB TOTAL     ACCESS:   22132994  HIT:   17703037  MISS:    4429957  HIT %:    79.9848  MISS %:    20.0152   MPKI: 22.1498
BTB BRANCH_DIRECT_JUMP	ACCESS:    1771716  HIT:    1521380  MISS:     250336
BTB BRANCH_INDIRECT	ACCESS:    9488973  HIT:    7332684  MISS:    2156289
BTB BRANCH_CONDITIONAL	ACCESS:    4504476  HIT:    4096603  MISS:     407873
BTB BRANCH_DIRECT_CALL	ACCESS:    2499396  HIT:    2015019  MISS:     484377
BTB BRANCH_INDIRECT_CALL	ACCESS:     683762  HIT:     642808  MISS:      40954
BTB BRANCH_RETURN	ACCESS:    3184671  HIT:    2094543  MISS:    1090128
BTB BRANCH_OTHER ACCESS:          0  HIT:          0  MISS:          0

L2C TOTAL     ACCESS:    9418699  HIT:    6180908  MISS:    3237791  HIT %:    65.6238  MISS %:    34.3762   MPKI: 16.189
L2C LOAD      ACCESS:    7083498  HIT:    4315215  MISS:    2768283  HIT %:    60.9193  MISS %:    39.0807   MPKI: 13.8414
L2C DATA LOAD MPKI: 4.48211
L2C INSTRUCTION LOAD MPKI: 9.3593
L2C RFO       ACCESS:     326248  HIT:     191175  MISS:     135073  HIT %:    58.5981  MISS %:    41.4019   MPKI: 0.675365
L2C PREFETCH  ACCESS:     270167  HIT:     187215  MISS:      82952  HIT %:     69.296  MISS %:     30.704   MPKI: 0.41476
AGUS PREFETCH L1 MISS: 0
L2C DATA PREFETCH MPKI: 0.41476
L2C INSTRUCTION PREFETCH MPKI: 0
L2C WRITEBACK ACCESS:    1018517  HIT:     970632  MISS:      47885  HIT %:    95.2986  MISS %:    4.70144   MPKI: 0.239425
L2C LOAD TRANSLATION ACCESS:     452525  HIT:     279821  MISS:     172704  HIT %:    61.8355  MISS %:    38.1645   MPKI: 0.86352
L2C TRANSLATION FROM L1D PREFETCHER ACCESS:     267744  HIT:     236850  MISS:      30894  HIT %:    88.4614  MISS %:    11.5386   MPKI: 0.15447
L2C PREFETCH  REQUESTED:          0  ISSUED:          0  USEFUL:      26884  USELESS:      86756
L2C USEFUL LOAD PREFETCHES:      26884 PREFETCH ISSUED TO LOWER LEVEL:      82952  ACCURACY: 32.4091
L2C TIMELY PREFETCHES:      26884 LATE PREFETCHES: 0 DROPPED PREFETCHES: 0
L2C PREFETCHES SAME FILL-ORIGIN LEVEL: 0 DIFFERENT FILL-ORIGIN LEVEL: 0
L2C AVERAGE MISS LATENCY: 43.9515 cycles
L2C RQ	ACCESS:    8130145	FORWARD:          0	MERGED:          0	TO_CACHE:    8130016
L2C WQ	ACCESS:    1018517	FORWARD:        228	MERGED:          0	TO_CACHE:    1018517
L2C PQ	ACCESS:     270266	FORWARD:          0	MERGED:          0	TO_CACHE:     270167

L2C Instructions Evicting Data 672657
L2C Translations Evicting Data 74874
L2C Data Evicting Data 397951
L2C Instructions Evicting Instructions 1084925
L2C Translations Evicting Instructions 114234
L2C Data Evicting Instructions 644634
L2C Instructions Evicting Translations 114279
L2C Translations Evicting Translations 14490
L2C Data Evicting Translations 71862
L2C Dense regions hint from L2: 0
PSCL5 TOTAL     ACCESS:     558743  HIT:     558743  MISS:          0  HIT %:        100  MISS %:          0   MPKI: 0
PSCL5 LOAD TRANSLATION ACCESS:     346476  HIT:     346476  MISS:          0  HIT %:        100  MISS %:          0   MPKI: 0
PSCL5 TRANSLATION FROM L1D PREFETCHER ACCESS:     212267  HIT:     212267  MISS:          0  HIT %:        100  MISS %:          0   MPKI: 0
PSCL5 PREFETCH  REQUESTED:          0  ISSUED:          0  USEFUL:          0  USELESS:          0
PSCL5 USEFUL LOAD PREFETCHES:          0 PREFETCH ISSUED TO LOWER LEVEL:          0  ACCURACY: -nan
PSCL5 TIMELY PREFETCHES:          0 LATE PREFETCHES: 0 DROPPED PREFETCHES: 0
PSCL5 PREFETCHES SAME FILL-ORIGIN LEVEL: 0 DIFFERENT FILL-ORIGIN LEVEL: 0

PSCL4 TOTAL     ACCESS:     499180  HIT:     498739  MISS:        441  HIT %:    99.9117  MISS %:  0.0883449   MPKI: 0.002205
PSCL4 LOAD TRANSLATION ACCESS:     327090  HIT:     326649  MISS:        441  HIT %:    99.8652  MISS %:   0.134825   MPKI: 0.002205
PSCL4 TRANSLATION FROM L1D PREFETCHER ACCESS:     172090  HIT:     172090  MISS:          0  HIT %:        100  MISS %:          0   MPKI: 0
PSCL4 PREFETCH  REQUESTED:          0  ISSUED:          0  USEFUL:          0  USELESS:          0
PSCL4 USEFUL LOAD PREFETCHES:          0 PREFETCH ISSUED TO LOWER LEVEL:          0  ACCURACY: -nan
PSCL4 TIMELY PREFETCHES:          0 LATE PREFETCHES: 0 DROPPED PREFETCHES: 0
PSCL4 PREFETCHES SAME FILL-ORIGIN LEVEL: 0 DIFFERENT FILL-ORIGIN LEVEL: 0

PSCL3 TOTAL     ACCESS:     518342  HIT:     517461  MISS:        881  HIT %:      99.83  MISS %:   0.169965   MPKI: 0.004405
PSCL3 LOAD TRANSLATION ACCESS:     345635  HIT:     344754  MISS:        881  HIT %:    99.7451  MISS %:   0.254893   MPKI: 0.004405
PSCL3 TRANSLATION FROM L1D PREFETCHER ACCESS:     172707  HIT:     172707  MISS:          0  HIT %:        100  MISS %:          0   MPKI: 0
PSCL3 PREFETCH  REQUESTED:          0  ISSUED:          0  USEFUL:          0  USELESS:          0
PSCL3 USEFUL LOAD PREFETCHES:          0 PREFETCH ISSUED TO LOWER LEVEL:          0  ACCURACY: -nan
PSCL3 TIMELY PREFETCHES:          0 LATE PREFETCHES: 0 DROPPED PREFETCHES: 0
PSCL3 PREFETCHES SAME FILL-ORIGIN LEVEL: 0 DIFFERENT FILL-ORIGIN LEVEL: 0

PSCL2 TOTAL     ACCESS:     376593  HIT:     266082  MISS:     110511  HIT %:    70.6551  MISS %:    29.3449   MPKI: 0.552555
PSCL2 LOAD TRANSLATION ACCESS:     352200  HIT:     241689  MISS:     110511  HIT %:    68.6227  MISS %:    31.3773   MPKI: 0.552555
PSCL2 TRANSLATION FROM L1D PREFETCHER ACCESS:      24393  HIT:      24393  MISS:          0  HIT %:        100  MISS %:          0   MPKI: 0
PSCL2 PREFETCH  REQUESTED:          0  ISSUED:          0  USEFUL:          0  USELESS:          0
PSCL2 USEFUL LOAD PREFETCHES:          0 PREFETCH ISSUED TO LOWER LEVEL:          0  ACCURACY: -nan
PSCL2 TIMELY PREFETCHES:          0 LATE PREFETCHES: 0 DROPPED PREFETCHES: 0
PSCL2 PREFETCHES SAME FILL-ORIGIN LEVEL: 0 DIFFERENT FILL-ORIGIN LEVEL: 0

LLC TOTAL     ACCESS:    3603860  HIT:    3297956  MISS:     305904  HIT %:    91.5118  MISS %:    8.48823   MPKI: 1.52952
LLC LOAD      ACCESS:    2768283  HIT:    2534131  MISS:     234152  HIT %:    91.5416  MISS %:    8.45838   MPKI: 1.17076
LLC RFO       ACCESS:     135072  HIT:      89210  MISS:      45862  HIT %:    66.0463  MISS %:    33.9537   MPKI: 0.22931
LLC PREFETCH  ACCESS:      82952  HIT:      73013  MISS:       9939  HIT %:    88.0184  MISS %:    11.9816   MPKI: 0.049695
AGUS PREFETCH L1 MISS: 0
LLC WRITEBACK ACCESS:     413955  HIT:     411634  MISS:       2321  HIT %:    99.4393  MISS %:   0.560689   MPKI: 0.011605
LLC LOAD TRANSLATION ACCESS:     172704  HIT:     161076  MISS:      11628  HIT %:    93.2671  MISS %:    6.73291   MPKI: 0.05814
LLC TRANSLATION FROM L1D PREFETCHER ACCESS:      30894  HIT:      28892  MISS:       2002  HIT %:    93.5198  MISS %:    6.48022   MPKI: 0.01001
LLC PREFETCH  REQUESTED:          0  ISSUED:          0  USEFUL:       1728  USELESS:       9912
LLC USEFUL LOAD PREFETCHES:       1728 PREFETCH ISSUED TO LOWER LEVEL:       9939  ACCURACY: 17.3861
LLC TIMELY PREFETCHES:       1728 LATE PREFETCHES: 0 DROPPED PREFETCHES: 0
LLC PREFETCHES SAME FILL-ORIGIN LEVEL: 0 DIFFERENT FILL-ORIGIN LEVEL: 0
LLC AVERAGE MISS LATENCY: 152.359 cycles
LLC RQ	ACCESS:    3106954	FORWARD:          0	MERGED:          0	TO_CACHE:    3106953
LLC WQ	ACCESS:     413955	FORWARD:          1	MERGED:          0	TO_CACHE:     413955
LLC PQ	ACCESS:      82952	FORWARD:          0	MERGED:          0	TO_CACHE:      82952

LLC Dense regions hint to LLC: 0

RAW hits: 2756822
Loads Generated: 44852676
Loads sent to L1D: 42095852
Stores Generated: 20271815
Stores sent to L1D: 20271818
Major fault: 0 Minor fault: 6260
Allocated PAGES: 6260
Completed 

DRAM Statistics
 CHANNEL 0
 RQ ROW_BUFFER_HIT:      55571  ROW_BUFFER_MISS:     248012
 DBUS_CONGESTED:        212
 WQ ROW_BUFFER_HIT:      29825  ROW_BUFFER_MISS:     186051  FULL:          0

 AVG_CONGESTED_CYCLE: 4
 All warmup complete: 2
Channel 0 Bank busy for read cycles: 0
Channel 0 Bank busy for write cycles: 0
Channel 0
Rank 0
0banks busy for read cycles: 384099862
0banks busy for write cycles: 122823
1banks busy for read cycles: 28372407
1banks busy for write cycles: 17335323
2banks busy for read cycles: 3806279
2banks busy for write cycles: 4073784
3banks busy for read cycles: 512304
3banks busy for write cycles: 1359116
4banks busy for read cycles: 222622
4banks busy for write cycles: 712152
5banks busy for read cycles: 88856
5banks busy for write cycles: 412030
6banks busy for read cycles: 67315
6banks busy for write cycles: 290934
7banks busy for read cycles: 48636
7banks busy for write cycles: 256177
8banks busy for read cycles: 47547
8banks busy for write cycles: 268292

CPU 0 Branch Prediction Accuracy: 99.8245% MPKI: 0.314415 Average ROB Occupancy at Mispredict: 42.8066
Branch types
NOT_BRANCH: 164177126 82.0886%
BRANCH_DIRECT_JUMP: 1771716 0.885858%
BRANCH_INDIRECT: 9488973 4.74449%
BRANCH_CONDITIONAL: 18194015 9.09701%
BRANCH_DIRECT_CALL: 2499396 1.2497%
BRANCH_INDIRECT_CALL: 683762 0.341881%
BRANCH_RETURN: 3184671 1.59234%
BRANCH_OTHER: 0 0%

DRAM PAGES: 1048576
Allocated PAGES: 6260
