
*** ChampSim Multicore Out-of-Order Simulator ***

Warmup Instructions: 50000000
Simulation Instructions: 200000000
Number of CPUs: 1
LLC sets: 2048
LLC ways: 16
Off-chip DRAM Size: 4096 MB Channels: 1 Width: 64-bit Data Rate: 6400 MT/s
CPU 0 runs traces/spec2k17/srv_59.champsimtrace.xz
.xz
BTB has LRU replacement policy
ITLB has LRU replacement policy
DTLB has LRU replacement policy
STLB has LRU replacement policy
L1I has LRU replacement policy
L1D has LRU replacement policy
Initialize SRRIP state for L2C
Initialize DRRIP state for LLC
Heartbeat CPU 0 instructions: 10000001 cycles: 2965193 heartbeat IPC: 3.37246 cumulative IPC: 3.37246 (Simulation time: 0 hr 0 min 38 sec) 
Heartbeat CPU 0 instructions: 20000003 cycles: 5797723 heartbeat IPC: 3.53041 cumulative IPC: 3.44963 (Simulation time: 0 hr 1 min 16 sec) 
Heartbeat CPU 0 instructions: 30000002 cycles: 8587771 heartbeat IPC: 3.58417 cumulative IPC: 3.49334 (Simulation time: 0 hr 1 min 53 sec) 
*** Reached end of trace for Core: 0 Repeating trace: traces/spec2k17/srv_59.champsimtrace.xz
Heartbeat CPU 0 instructions: 40000000 cycles: 11529425 heartbeat IPC: 3.39945 cumulative IPC: 3.46938 (Simulation time: 0 hr 2 min 27 sec) 
Heartbeat CPU 0 instructions: 50000003 cycles: 14389786 heartbeat IPC: 3.49606 cumulative IPC: 3.47469 (Simulation time: 0 hr 2 min 57 sec) 

Warmup complete CPU 0 instructions: 50000003 cycles: 14389786 (Simulation time: 0 hr 2 min 57 sec) 

Heartbeat CPU 0 instructions: 60000001 cycles: 33166568 heartbeat IPC: 0.532573 cumulative IPC: 0.532573 (Simulation time: 0 hr 3 min 38 sec) 
*** Reached end of trace for Core: 0 Repeating trace: traces/spec2k17/srv_59.champsimtrace.xz
Heartbeat CPU 0 instructions: 70000002 cycles: 47023491 heartbeat IPC: 0.721661 cumulative IPC: 0.612863 (Simulation time: 0 hr 4 min 16 sec) 
Heartbeat CPU 0 instructions: 80000001 cycles: 62890889 heartbeat IPC: 0.630223 cumulative IPC: 0.618543 (Simulation time: 0 hr 4 min 54 sec) 
Heartbeat CPU 0 instructions: 90000000 cycles: 81453539 heartbeat IPC: 0.538716 cumulative IPC: 0.596447 (Simulation time: 0 hr 5 min 30 sec) 
*** Reached end of trace for Core: 0 Repeating trace: traces/spec2k17/srv_59.champsimtrace.xz
Heartbeat CPU 0 instructions: 100000001 cycles: 96424208 heartbeat IPC: 0.667973 cumulative IPC: 0.6095 (Simulation time: 0 hr 6 min 8 sec) 
Heartbeat CPU 0 instructions: 110000000 cycles: 111265286 heartbeat IPC: 0.673805 cumulative IPC: 0.619352 (Simulation time: 0 hr 6 min 45 sec) 
Heartbeat CPU 0 instructions: 120000000 cycles: 130064094 heartbeat IPC: 0.531949 cumulative IPC: 0.605147 (Simulation time: 0 hr 7 min 22 sec) 
*** Reached end of trace for Core: 0 Repeating trace: traces/spec2k17/srv_59.champsimtrace.xz
Heartbeat CPU 0 instructions: 130000001 cycles: 145848501 heartbeat IPC: 0.633537 cumulative IPC: 0.608556 (Simulation time: 0 hr 7 min 59 sec) 
Heartbeat CPU 0 instructions: 140000003 cycles: 159822759 heartbeat IPC: 0.715602 cumulative IPC: 0.618842 (Simulation time: 0 hr 8 min 37 sec) 
Heartbeat CPU 0 instructions: 150000003 cycles: 178432832 heartbeat IPC: 0.537343 cumulative IPC: 0.609596 (Simulation time: 0 hr 9 min 13 sec) 
*** Reached end of trace for Core: 0 Repeating trace: traces/spec2k17/srv_59.champsimtrace.xz
Heartbeat CPU 0 instructions: 160000000 cycles: 195268894 heartbeat IPC: 0.593963 cumulative IPC: 0.608141 (Simulation time: 0 hr 9 min 51 sec) 
Heartbeat CPU 0 instructions: 170000000 cycles: 208129423 heartbeat IPC: 0.777573 cumulative IPC: 0.619388 (Simulation time: 0 hr 10 min 30 sec) 
Heartbeat CPU 0 instructions: 180000000 cycles: 226875370 heartbeat IPC: 0.533449 cumulative IPC: 0.611806 (Simulation time: 0 hr 11 min 7 sec) 
*** Reached end of trace for Core: 0 Repeating trace: traces/spec2k17/srv_59.champsimtrace.xz
Heartbeat CPU 0 instructions: 190000000 cycles: 244668314 heartbeat IPC: 0.562021 cumulative IPC: 0.607959 (Simulation time: 0 hr 11 min 43 sec) 
Heartbeat CPU 0 instructions: 200000000 cycles: 256500544 heartbeat IPC: 0.845149 cumulative IPC: 0.619551 (Simulation time: 0 hr 12 min 22 sec) 
Heartbeat CPU 0 instructions: 210000002 cycles: 275265487 heartbeat IPC: 0.532909 cumulative IPC: 0.613319 (Simulation time: 0 hr 12 min 58 sec) 
*** Reached end of trace for Core: 0 Repeating trace: traces/spec2k17/srv_59.champsimtrace.xz
Heartbeat CPU 0 instructions: 220000000 cycles: 293871519 heartbeat IPC: 0.53746 cumulative IPC: 0.608269 (Simulation time: 0 hr 13 min 34 sec) 
Heartbeat CPU 0 instructions: 230000003 cycles: 304964118 heartbeat IPC: 0.901502 cumulative IPC: 0.619463 (Simulation time: 0 hr 14 min 13 sec) 
Heartbeat CPU 0 instructions: 240000000 cycles: 323611073 heartbeat IPC: 0.53628 cumulative IPC: 0.614447 (Simulation time: 0 hr 14 min 47 sec) 
*** Reached end of trace for Core: 0 Repeating trace: traces/spec2k17/srv_59.champsimtrace.xz
Heartbeat CPU 0 instructions: 250000001 cycles: 342158966 heartbeat IPC: 0.539145 cumulative IPC: 0.610186 (Simulation time: 0 hr 15 min 21 sec) 
Finished CPU 0 instructions: 200000000 cycles: 327769181 cumulative IPC: 0.610186 (Simulation time: 0 hr 15 min 21 sec) 

ChampSim completed all CPUs

Region of Interest Statistics

CPU 0 cumulative IPC: 0.610186 instructions: 200000000 cycles: 327769181
ITLB TOTAL     ACCESS:   36236131  HIT:   35634713  MISS:     601418  HIT %:    98.3403  MISS %:    1.65972   MPKI: 3.00709
ITLB LOAD TRANSLATION ACCESS:   36236131  HIT:   35634713  MISS:     601418  HIT %:    98.3403  MISS %:    1.65972   MPKI: 3.00709
ITLB PREFETCH  REQUESTED:          0  ISSUED:          0  USEFUL:          0  USELESS:          0
ITLB USEFUL LOAD PREFETCHES:          0 PREFETCH ISSUED TO LOWER LEVEL:          0  ACCURACY: -nan
ITLB TIMELY PREFETCHES:          0 LATE PREFETCHES: 0 DROPPED PREFETCHES: 0
ITLB PREFETCHES SAME FILL-ORIGIN LEVEL: 0 DIFFERENT FILL-ORIGIN LEVEL: 0
ITLB AVERAGE MISS LATENCY: 9.04518 cycles
ITLB RQ	ACCESS:   40786965	FORWARD:          0	MERGED:    4356855	TO_CACHE:   36430110

DTLB TOTAL     ACCESS:   42637678  HIT:   41932349  MISS:     705329  HIT %:    98.3458  MISS %:    1.65424   MPKI: 3.52664
DTLB LOAD TRANSLATION ACCESS:   42637678  HIT:   41932349  MISS:     705329  HIT %:    98.3458  MISS %:    1.65424   MPKI: 3.52664
DTLB PREFETCH  REQUESTED:          0  ISSUED:          0  USEFUL:          0  USELESS:          0
DTLB USEFUL LOAD PREFETCHES:          0 PREFETCH ISSUED TO LOWER LEVEL:          0  ACCURACY: -nan
DTLB TIMELY PREFETCHES:          0 LATE PREFETCHES: 0 DROPPED PREFETCHES: 0
DTLB PREFETCHES SAME FILL-ORIGIN LEVEL: 0 DIFFERENT FILL-ORIGIN LEVEL: 0
DTLB AVERAGE MISS LATENCY: 8.5798 cycles
DTLB RQ	ACCESS:   58409512	FORWARD:          0	MERGED:   15740486	TO_CACHE:   42669026

STLB TOTAL     ACCESS:   17205919  HIT:   17205164  MISS:        755  HIT %:    99.9956  MISS %: 0.00438802   MPKI: 0.003775
STLB LOAD TRANSLATION ACCESS:    1306747  HIT:    1306003  MISS:        744  HIT %:    99.9431  MISS %:  0.0569353   MPKI: 0.00372
STLB TRANSLATION FROM L1D PREFETCHER ACCESS:   15899172  HIT:   15899161  MISS:         11  HIT %:    99.9999  MISS %: 6.9186e-05   MPKI: 5.5e-05
STLB PREFETCH  REQUESTED:          0  ISSUED:          0  USEFUL:          5  USELESS:          6
STLB USEFUL LOAD PREFETCHES:          5 PREFETCH ISSUED TO LOWER LEVEL:          0  ACCURACY: inf
STLB TIMELY PREFETCHES:          5 LATE PREFETCHES: 0 DROPPED PREFETCHES: 559200
STLB PREFETCHES SAME FILL-ORIGIN LEVEL: 0 DIFFERENT FILL-ORIGIN LEVEL: 0
STLB AVERAGE MISS LATENCY: 64.9709 cycles
STLB RQ	ACCESS:   21666144	FORWARD:          0	MERGED:    3899935	TO_CACHE:   17766209

STLB Hit, L1D data hit: 0
STLB Hit, L2C data hit: 0
STLB Hit, LLC data hit: 0
STLB Hit, LLC data miss: 0
STLB STLB hints to L2: 0
L1D TOTAL     ACCESS:   77681605  HIT:   76489396  MISS:    1192209  HIT %:    98.4653  MISS %:    1.53474   MPKI: 5.96105
L1D LOAD      ACCESS:   37321312  HIT:   36572091  MISS:     749221  HIT %:    97.9925  MISS %:    2.00749   MPKI: 3.74611
L1D RFO       ACCESS:   20678218  HIT:   20377225  MISS:     300993  HIT %:    98.5444  MISS %:     1.4556   MPKI: 1.50497
L1D PREFETCH  ACCESS:   19682075  HIT:   19540080  MISS:     141995  HIT %:    99.2786  MISS %:   0.721443   MPKI: 0.709975
AGUS PREFETCH L1 MISS: 0
L1D PREFETCH  REQUESTED:   43526295  ISSUED:   43520939  USEFUL:      47790  USELESS:      94145
L1D USEFUL LOAD PREFETCHES:      47790 PREFETCH ISSUED TO LOWER LEVEL:     169328  ACCURACY: 28.2233
L1D TIMELY PREFETCHES:      47790 LATE PREFETCHES: 27300 DROPPED PREFETCHES: 604556
L1D PREFETCHES SAME FILL-ORIGIN LEVEL: 169328 DIFFERENT FILL-ORIGIN LEVEL: 0
L1D AVERAGE MISS LATENCY: 5.02534e+06 cycles
L1D RQ	ACCESS:   52188527	FORWARD:          0	MERGED:   14615970	TO_CACHE:   37352490
L1D WQ	ACCESS:   21284228	FORWARD:     258178	MERGED:     227206	TO_CACHE:   21057022
L1D PQ	ACCESS:   23161542	FORWARD:          0	MERGED:    2764034	TO_CACHE:   20359397

L1D UNIQUE REGIONS ACCESSED: 0
L1D REGIONS CONFLICTS: 0
L1D Cross Page Prefetch Requests: 18831307
L1D Same Page Prefetch Requests: 6738325
L1D ROI Sum of L1D PQ occupancy: 309521006
L1D PREFETCHES PUSHED FROM L2C: 0
L1I TOTAL     ACCESS:   40390300  HIT:   38148177  MISS:    2242123  HIT %:    94.4489  MISS %:    5.55114   MPKI: 11.2106
L1I LOAD      ACCESS:   40390300  HIT:   38148177  MISS:    2242123  HIT %:    94.4489  MISS %:    5.55114   MPKI: 11.2106
L1I PREFETCH  REQUESTED:          0  ISSUED:          0  USEFUL:          0  USELESS:          0
L1I USEFUL LOAD PREFETCHES:          0 PREFETCH ISSUED TO LOWER LEVEL:          0  ACCURACY: -nan
L1I TIMELY PREFETCHES:          0 LATE PREFETCHES: 0 DROPPED PREFETCHES: 0
L1I PREFETCHES SAME FILL-ORIGIN LEVEL: 0 DIFFERENT FILL-ORIGIN LEVEL: 0
L1I AVERAGE MISS LATENCY: 18.4883 cycles
L1I RQ	ACCESS:   63570128	FORWARD:          0	MERGED:   22783163	TO_CACHE:   40786965

BTB TOTAL     ACCESS:   34458801  HIT:   30772866  MISS:    3685935  HIT %:    89.3034  MISS %:    10.6966   MPKI: 18.4297
BTB BRANCH_DIRECT_JUMP	ACCESS:    3454568  HIT:    3286605  MISS:     167963
BTB BRANCH_INDIRECT	ACCESS:   13788070  HIT:   12683447  MISS:    1104623
BTB BRANCH_CONDITIONAL	ACCESS:    7883609  HIT:    7670722  MISS:     212887
BTB BRANCH_DIRECT_CALL	ACCESS:    2450863  HIT:    2153289  MISS:     297574
BTB BRANCH_INDIRECT_CALL	ACCESS:    2215440  HIT:    1977201  MISS:     238239
BTB BRANCH_RETURN	ACCESS:    4666251  HIT:    3001602  MISS:    1664649
BTB BRANCH_OTHER ACCESS:          0  HIT:          0  MISS:          0

L2C TOTAL     ACCESS:    4770551  HIT:    4177865  MISS:     592686  HIT %:    87.5762  MISS %:    12.4238   MPKI: 2.96343
L2C LOAD      ACCESS:    2963969  HIT:    2496780  MISS:     467189  HIT %:    84.2377  MISS %:    15.7623   MPKI: 2.33595
L2C DATA LOAD MPKI: 0.68158
L2C INSTRUCTION LOAD MPKI: 1.65437
L2C RFO       ACCESS:     300960  HIT:     233001  MISS:      67959  HIT %:    77.4193  MISS %:    22.5807   MPKI: 0.339795
L2C PREFETCH  ACCESS:     169328  HIT:     134646  MISS:      34682  HIT %:    79.5179  MISS %:    20.4821   MPKI: 0.17341
AGUS PREFETCH L1 MISS: 0
L2C DATA PREFETCH MPKI: 0.17341
L2C INSTRUCTION PREFETCH MPKI: 0
L2C WRITEBACK ACCESS:     507727  HIT:     495318  MISS:      12409  HIT %:     97.556  MISS %:    2.44403   MPKI: 0.062045
L2C LOAD TRANSLATION ACCESS:       1097  HIT:        253  MISS:        844  HIT %:    23.0629  MISS %:    76.9371   MPKI: 0.00422
L2C TRANSLATION FROM L1D PREFETCHER ACCESS:     827470  HIT:     817867  MISS:       9603  HIT %:    98.8395  MISS %:    1.16053   MPKI: 0.048015
L2C PREFETCH  REQUESTED:          0  ISSUED:          0  USEFUL:      11287  USELESS:      32816
L2C USEFUL LOAD PREFETCHES:      11287 PREFETCH ISSUED TO LOWER LEVEL:      34682  ACCURACY: 32.5443
L2C TIMELY PREFETCHES:      11287 LATE PREFETCHES: 0 DROPPED PREFETCHES: 0
L2C PREFETCHES SAME FILL-ORIGIN LEVEL: 0 DIFFERENT FILL-ORIGIN LEVEL: 0
L2C AVERAGE MISS LATENCY: 29.8101 cycles
L2C RQ	ACCESS:    4093571	FORWARD:          0	MERGED:          0	TO_CACHE:    4093496
L2C WQ	ACCESS:     507727	FORWARD:         75	MERGED:          0	TO_CACHE:     507727
L2C PQ	ACCESS:     169328	FORWARD:          0	MERGED:          0	TO_CACHE:     169328

L2C Instructions Evicting Data 122799
L2C Translations Evicting Data 5601
L2C Data Evicting Data 117081
L2C Instructions Evicting Instructions 203150
L2C Translations Evicting Instructions 4768
L2C Data Evicting Instructions 116842
L2C Instructions Evicting Translations 4924
L2C Translations Evicting Translations 78
L2C Data Evicting Translations 5032
L2C Dense regions hint from L2: 0
PSCL5 TOTAL     ACCESS:     508329  HIT:     508329  MISS:          0  HIT %:        100  MISS %:          0   MPKI: 0
PSCL5 LOAD TRANSLATION ACCESS:        744  HIT:        744  MISS:          0  HIT %:        100  MISS %:          0   MPKI: 0
PSCL5 TRANSLATION FROM L1D PREFETCHER ACCESS:     507585  HIT:     507585  MISS:          0  HIT %:        100  MISS %:          0   MPKI: 0
PSCL5 PREFETCH  REQUESTED:          0  ISSUED:          0  USEFUL:          0  USELESS:          0
PSCL5 USEFUL LOAD PREFETCHES:          0 PREFETCH ISSUED TO LOWER LEVEL:          0  ACCURACY: -nan
PSCL5 TIMELY PREFETCHES:          0 LATE PREFETCHES: 0 DROPPED PREFETCHES: 0
PSCL5 PREFETCHES SAME FILL-ORIGIN LEVEL: 0 DIFFERENT FILL-ORIGIN LEVEL: 0

PSCL4 TOTAL     ACCESS:     468193  HIT:     468193  MISS:          0  HIT %:        100  MISS %:          0   MPKI: 0
PSCL4 LOAD TRANSLATION ACCESS:        744  HIT:        744  MISS:          0  HIT %:        100  MISS %:          0   MPKI: 0
PSCL4 TRANSLATION FROM L1D PREFETCHER ACCESS:     467449  HIT:     467449  MISS:          0  HIT %:        100  MISS %:          0   MPKI: 0
PSCL4 PREFETCH  REQUESTED:          0  ISSUED:          0  USEFUL:          0  USELESS:          0
PSCL4 USEFUL LOAD PREFETCHES:          0 PREFETCH ISSUED TO LOWER LEVEL:          0  ACCURACY: -nan
PSCL4 TIMELY PREFETCHES:          0 LATE PREFETCHES: 0 DROPPED PREFETCHES: 0
PSCL4 PREFETCHES SAME FILL-ORIGIN LEVEL: 0 DIFFERENT FILL-ORIGIN LEVEL: 0

PSCL3 TOTAL     ACCESS:     130853  HIT:     130731  MISS:        122  HIT %:    99.9068  MISS %:  0.0932344   MPKI: 0.00061
PSCL3 LOAD TRANSLATION ACCESS:        612  HIT:        490  MISS:        122  HIT %:    80.0654  MISS %:    19.9346   MPKI: 0.00061
PSCL3 TRANSLATION FROM L1D PREFETCHER ACCESS:     130241  HIT:     130241  MISS:          0  HIT %:        100  MISS %:          0   MPKI: 0
PSCL3 PREFETCH  REQUESTED:          0  ISSUED:          0  USEFUL:          0  USELESS:          0
PSCL3 USEFUL LOAD PREFETCHES:          0 PREFETCH ISSUED TO LOWER LEVEL:          0  ACCURACY: -nan
PSCL3 TIMELY PREFETCHES:          0 LATE PREFETCHES: 0 DROPPED PREFETCHES: 0
PSCL3 PREFETCHES SAME FILL-ORIGIN LEVEL: 0 DIFFERENT FILL-ORIGIN LEVEL: 0

PSCL2 TOTAL     ACCESS:      40373  HIT:      40134  MISS:        239  HIT %:     99.408  MISS %:    0.59198   MPKI: 0.001195
PSCL2 LOAD TRANSLATION ACCESS:        750  HIT:        511  MISS:        239  HIT %:    68.1333  MISS %:    31.8667   MPKI: 0.001195
PSCL2 TRANSLATION FROM L1D PREFETCHER ACCESS:      39623  HIT:      39623  MISS:          0  HIT %:        100  MISS %:          0   MPKI: 0
PSCL2 PREFETCH  REQUESTED:          0  ISSUED:          0  USEFUL:          0  USELESS:          0
PSCL2 USEFUL LOAD PREFETCHES:          0 PREFETCH ISSUED TO LOWER LEVEL:          0  ACCURACY: -nan
PSCL2 TIMELY PREFETCHES:          0 LATE PREFETCHES: 0 DROPPED PREFETCHES: 0
PSCL2 PREFETCHES SAME FILL-ORIGIN LEVEL: 0 DIFFERENT FILL-ORIGIN LEVEL: 0

LLC TOTAL     ACCESS:     677388  HIT:     675767  MISS:       1621  HIT %:    99.7607  MISS %:   0.239302   MPKI: 0.008105
LLC LOAD      ACCESS:     467187  HIT:     466782  MISS:        405  HIT %:    99.9133  MISS %:  0.0866891   MPKI: 0.002025
LLC RFO       ACCESS:      67959  HIT:      67958  MISS:          1  HIT %:    99.9985  MISS %: 0.00147148   MPKI: 5e-06
LLC PREFETCH  ACCESS:      34682  HIT:      33752  MISS:        930  HIT %:    97.3185  MISS %:    2.68151   MPKI: 0.00465
AGUS PREFETCH L1 MISS: 0
LLC WRITEBACK ACCESS:      97113  HIT:      97111  MISS:          2  HIT %:    99.9979  MISS %: 0.00205946   MPKI: 1e-05
LLC LOAD TRANSLATION ACCESS:        844  HIT:        821  MISS:         23  HIT %:    97.2749  MISS %:    2.72512   MPKI: 0.000115
LLC TRANSLATION FROM L1D PREFETCHER ACCESS:       9603  HIT:       9343  MISS:        260  HIT %:    97.2925  MISS %:    2.70749   MPKI: 0.0013
LLC PREFETCH  REQUESTED:          0  ISSUED:          0  USEFUL:        241  USELESS:         81
LLC USEFUL LOAD PREFETCHES:        241 PREFETCH ISSUED TO LOWER LEVEL:        930  ACCURACY: 25.914
LLC TIMELY PREFETCHES:        241 LATE PREFETCHES: 0 DROPPED PREFETCHES: 0
LLC PREFETCHES SAME FILL-ORIGIN LEVEL: 0 DIFFERENT FILL-ORIGIN LEVEL: 0
LLC AVERAGE MISS LATENCY: 160.228 cycles
LLC RQ	ACCESS:     545595	FORWARD:          0	MERGED:          0	TO_CACHE:     545593
LLC WQ	ACCESS:      97113	FORWARD:          2	MERGED:          0	TO_CACHE:      97113
LLC PQ	ACCESS:      34682	FORWARD:          0	MERGED:          0	TO_CACHE:      34682

LLC Dense regions hint to LLC: 0

RAW hits: 3079656
Loads Generated: 55268187
Loads sent to L1D: 52188527
Stores Generated: 21284217
Stores sent to L1D: 21284228
Major fault: 0 Minor fault: 1240
Allocated PAGES: 1240
Completed 

DRAM Statistics
 CHANNEL 0
 RQ ROW_BUFFER_HIT:        170  ROW_BUFFER_MISS:       1449
 DBUS_CONGESTED:          0
 WQ ROW_BUFFER_HIT:          0  ROW_BUFFER_MISS:          2  FULL:          0

 AVG_CONGESTED_CYCLE: -
 All warmup complete: 2
Channel 0 Bank busy for read cycles: 0
Channel 0 Bank busy for write cycles: 0
Channel 0
Rank 0
0banks busy for read cycles: 327557423
0banks busy for write cycles: 2
1banks busy for read cycles: 197107
1banks busy for write cycles: 300
2banks busy for read cycles: 14307
2banks busy for write cycles: 0
3banks busy for read cycles: 43
3banks busy for write cycles: 0
4banks busy for read cycles: 0
4banks busy for write cycles: 0
5banks busy for read cycles: 0
5banks busy for write cycles: 0
6banks busy for read cycles: 0
6banks busy for write cycles: 0
7banks busy for read cycles: 0
7banks busy for write cycles: 0
8banks busy for read cycles: 0
8banks busy for write cycles: 0

CPU 0 Branch Prediction Accuracy: 99.8703% MPKI: 0.256795 Average ROB Occupancy at Mispredict: 41.3273
Branch types
NOT_BRANCH: 160404655 80.2023%
BRANCH_DIRECT_JUMP: 3454568 1.72728%
BRANCH_INDIRECT: 13788070 6.89403%
BRANCH_CONDITIONAL: 13020070 6.51004%
BRANCH_DIRECT_CALL: 2450863 1.22543%
BRANCH_INDIRECT_CALL: 2215440 1.10772%
BRANCH_RETURN: 4666251 2.33313%
BRANCH_OTHER: 0 0%

DRAM PAGES: 1048576
Allocated PAGES: 1240
