
*** ChampSim Multicore Out-of-Order Simulator ***

Warmup Instructions: 50000000
Simulation Instructions: 200000000
Number of CPUs: 1
LLC sets: 2048
LLC ways: 16
Off-chip DRAM Size: 4096 MB Channels: 1 Width: 64-bit Data Rate: 6400 MT/s
CPU 0 runs traces/spec2k17/srv_45.champsimtrace.xz
.xz
BTB has LRU replacement policy
ITLB has LRU replacement policy
DTLB has LRU replacement policy
STLB has LRU replacement policy
L1I has LRU replacement policy
L1D has LRU replacement policy
Initialize SRRIP state for L2C
Initialize DRRIP state for LLC
Heartbeat CPU 0 instructions: 10000003 cycles: 2934874 heartbeat IPC: 3.4073 cumulative IPC: 3.4073 (Simulation time: 0 hr 0 min 28 sec) 
Heartbeat CPU 0 instructions: 20000002 cycles: 5870986 heartbeat IPC: 3.40586 cumulative IPC: 3.40658 (Simulation time: 0 hr 0 min 56 sec) 
Heartbeat CPU 0 instructions: 30000000 cycles: 8805038 heartbeat IPC: 3.40826 cumulative IPC: 3.40714 (Simulation time: 0 hr 1 min 34 sec) 
*** Reached end of trace for Core: 0 Repeating trace: traces/spec2k17/srv_45.champsimtrace.xz
Heartbeat CPU 0 instructions: 40000000 cycles: 11738008 heartbeat IPC: 3.40951 cumulative IPC: 3.40773 (Simulation time: 0 hr 2 min 16 sec) 
Heartbeat CPU 0 instructions: 50000001 cycles: 14677122 heartbeat IPC: 3.40239 cumulative IPC: 3.40666 (Simulation time: 0 hr 2 min 52 sec) 

Warmup complete CPU 0 instructions: 50000001 cycles: 14677122 (Simulation time: 0 hr 2 min 52 sec) 

Heartbeat CPU 0 instructions: 60000000 cycles: 54188122 heartbeat IPC: 0.253094 cumulative IPC: 0.253094 (Simulation time: 0 hr 3 min 49 sec) 
*** Reached end of trace for Core: 0 Repeating trace: traces/spec2k17/srv_45.champsimtrace.xz
Heartbeat CPU 0 instructions: 70000000 cycles: 93593545 heartbeat IPC: 0.253772 cumulative IPC: 0.253433 (Simulation time: 0 hr 4 min 36 sec) 
Heartbeat CPU 0 instructions: 80000001 cycles: 133073971 heartbeat IPC: 0.25329 cumulative IPC: 0.253385 (Simulation time: 0 hr 5 min 22 sec) 
Heartbeat CPU 0 instructions: 90000003 cycles: 172319165 heartbeat IPC: 0.254808 cumulative IPC: 0.253739 (Simulation time: 0 hr 6 min 7 sec) 
*** Reached end of trace for Core: 0 Repeating trace: traces/spec2k17/srv_45.champsimtrace.xz
Heartbeat CPU 0 instructions: 100000003 cycles: 211617082 heartbeat IPC: 0.254466 cumulative IPC: 0.253884 (Simulation time: 0 hr 6 min 52 sec) 
Heartbeat CPU 0 instructions: 110000000 cycles: 251018581 heartbeat IPC: 0.253797 cumulative IPC: 0.25387 (Simulation time: 0 hr 7 min 36 sec) 
Heartbeat CPU 0 instructions: 120000000 cycles: 290084324 heartbeat IPC: 0.255979 cumulative IPC: 0.254169 (Simulation time: 0 hr 8 min 20 sec) 
*** Reached end of trace for Core: 0 Repeating trace: traces/spec2k17/srv_45.champsimtrace.xz
Heartbeat CPU 0 instructions: 130000002 cycles: 329237854 heartbeat IPC: 0.255405 cumulative IPC: 0.254323 (Simulation time: 0 hr 9 min 5 sec) 
Heartbeat CPU 0 instructions: 140000003 cycles: 368377693 heartbeat IPC: 0.255494 cumulative IPC: 0.254453 (Simulation time: 0 hr 9 min 49 sec) 
Heartbeat CPU 0 instructions: 150000000 cycles: 407609787 heartbeat IPC: 0.254893 cumulative IPC: 0.254497 (Simulation time: 0 hr 10 min 33 sec) 
*** Reached end of trace for Core: 0 Repeating trace: traces/spec2k17/srv_45.champsimtrace.xz
Heartbeat CPU 0 instructions: 160000001 cycles: 446648601 heartbeat IPC: 0.256155 cumulative IPC: 0.254646 (Simulation time: 0 hr 11 min 19 sec) 
Heartbeat CPU 0 instructions: 170000001 cycles: 485749254 heartbeat IPC: 0.25575 cumulative IPC: 0.254738 (Simulation time: 0 hr 12 min 4 sec) 
Heartbeat CPU 0 instructions: 180000000 cycles: 525118596 heartbeat IPC: 0.254005 cumulative IPC: 0.254681 (Simulation time: 0 hr 12 min 49 sec) 
*** Reached end of trace for Core: 0 Repeating trace: traces/spec2k17/srv_45.champsimtrace.xz
Heartbeat CPU 0 instructions: 190000001 cycles: 564085967 heartbeat IPC: 0.256625 cumulative IPC: 0.254819 (Simulation time: 0 hr 13 min 34 sec) 
Heartbeat CPU 0 instructions: 200000000 cycles: 603411171 heartbeat IPC: 0.25429 cumulative IPC: 0.254784 (Simulation time: 0 hr 14 min 18 sec) 
Heartbeat CPU 0 instructions: 210000003 cycles: 642502942 heartbeat IPC: 0.255808 cumulative IPC: 0.254848 (Simulation time: 0 hr 15 min 2 sec) 
*** Reached end of trace for Core: 0 Repeating trace: traces/spec2k17/srv_45.champsimtrace.xz
Heartbeat CPU 0 instructions: 220000000 cycles: 681463537 heartbeat IPC: 0.25667 cumulative IPC: 0.254954 (Simulation time: 0 hr 15 min 46 sec) 
Heartbeat CPU 0 instructions: 230000000 cycles: 720703305 heartbeat IPC: 0.254844 cumulative IPC: 0.254948 (Simulation time: 0 hr 16 min 28 sec) 
Heartbeat CPU 0 instructions: 240000000 cycles: 759973359 heartbeat IPC: 0.254647 cumulative IPC: 0.254932 (Simulation time: 0 hr 17 min 8 sec) 
*** Reached end of trace for Core: 0 Repeating trace: traces/spec2k17/srv_45.champsimtrace.xz
Heartbeat CPU 0 instructions: 250000003 cycles: 798989505 heartbeat IPC: 0.256304 cumulative IPC: 0.255 (Simulation time: 0 hr 17 min 46 sec) 
Finished CPU 0 instructions: 200000002 cycles: 784312383 cumulative IPC: 0.255 (Simulation time: 0 hr 17 min 46 sec) 

ChampSim completed all CPUs

Region of Interest Statistics

CPU 0 cumulative IPC: 0.255 instructions: 200000002 cycles: 784312383
ITLB TOTAL     ACCESS:   36331875  HIT:   33584049  MISS:    2747826  HIT %:    92.4369  MISS %:    7.56313   MPKI: 13.7391
ITLB LOAD TRANSLATION ACCESS:   36331875  HIT:   33584049  MISS:    2747826  HIT %:    92.4369  MISS %:    7.56313   MPKI: 13.7391
ITLB PREFETCH  REQUESTED:          0  ISSUED:          0  USEFUL:          0  USELESS:          0
ITLB USEFUL LOAD PREFETCHES:          0 PREFETCH ISSUED TO LOWER LEVEL:          0  ACCURACY: -nan
ITLB TIMELY PREFETCHES:          0 LATE PREFETCHES: 0 DROPPED PREFETCHES: 0
ITLB PREFETCHES SAME FILL-ORIGIN LEVEL: 0 DIFFERENT FILL-ORIGIN LEVEL: 0
ITLB AVERAGE MISS LATENCY: 9.31938 cycles
ITLB RQ	ACCESS:   42987899	FORWARD:          0	MERGED:    5916947	TO_CACHE:   37070952

DTLB TOTAL     ACCESS:   49841732  HIT:   47383014  MISS:    2458718  HIT %:    95.0669  MISS %:    4.93305   MPKI: 12.2936
DTLB LOAD TRANSLATION ACCESS:   49841732  HIT:   47383014  MISS:    2458718  HIT %:    95.0669  MISS %:    4.93305   MPKI: 12.2936
DTLB PREFETCH  REQUESTED:          0  ISSUED:          0  USEFUL:          0  USELESS:          0
DTLB USEFUL LOAD PREFETCHES:          0 PREFETCH ISSUED TO LOWER LEVEL:          0  ACCURACY: -nan
DTLB TIMELY PREFETCHES:          0 LATE PREFETCHES: 0 DROPPED PREFETCHES: 0
DTLB PREFETCHES SAME FILL-ORIGIN LEVEL: 0 DIFFERENT FILL-ORIGIN LEVEL: 0
DTLB AVERAGE MISS LATENCY: 11.2961 cycles
DTLB RQ	ACCESS:   66058094	FORWARD:          0	MERGED:   16087783	TO_CACHE:   49970311

STLB TOTAL     ACCESS:   18119101  HIT:   18008724  MISS:     110377  HIT %:    99.3908  MISS %:   0.609175   MPKI: 0.551885
STLB LOAD TRANSLATION ACCESS:    5206543  HIT:    5103163  MISS:     103380  HIT %:    98.0144  MISS %:    1.98558   MPKI: 0.5169
STLB TRANSLATION FROM L1D PREFETCHER ACCESS:   12912558  HIT:   12905561  MISS:       6997  HIT %:    99.9458  MISS %:  0.0541876   MPKI: 0.034985
STLB PREFETCH  REQUESTED:          0  ISSUED:          0  USEFUL:       6062  USELESS:        928
STLB USEFUL LOAD PREFETCHES:       6062 PREFETCH ISSUED TO LOWER LEVEL:          0  ACCURACY: inf
STLB TIMELY PREFETCHES:       6062 LATE PREFETCHES: 617 DROPPED PREFETCHES: 346073
STLB PREFETCHES SAME FILL-ORIGIN LEVEL: 0 DIFFERENT FILL-ORIGIN LEVEL: 0
STLB AVERAGE MISS LATENCY: 76.9348 cycles
STLB RQ	ACCESS:   21003698	FORWARD:          0	MERGED:    2536072	TO_CACHE:   18467626

STLB Hit, L1D data hit: 0
STLB Hit, L2C data hit: 0
STLB Hit, LLC data hit: 0
STLB Hit, LLC data miss: 0
STLB STLB hints to L2: 0
L1D TOTAL     ACCESS:   77982482  HIT:   71826912  MISS:    6155570  HIT %:    92.1065  MISS %:    7.89353   MPKI: 30.7778
L1D LOAD      ACCESS:   39578722  HIT:   36263105  MISS:    3315617  HIT %:    91.6227  MISS %:    8.37727   MPKI: 16.5781
L1D RFO       ACCESS:   23836497  HIT:   22174442  MISS:    1662055  HIT %:    93.0273  MISS %:    6.97273   MPKI: 8.31027
L1D PREFETCH  ACCESS:   14567263  HIT:   13389365  MISS:    1177898  HIT %:    91.9141  MISS %:    8.08593   MPKI: 5.88949
AGUS PREFETCH L1 MISS: 0
L1D PREFETCH  REQUESTED:   33654293  ISSUED:   33654288  USEFUL:     813846  USELESS:     364029
L1D USEFUL LOAD PREFETCHES:     813846 PREFETCH ISSUED TO LOWER LEVEL:    1554072  ACCURACY: 52.3686
L1D TIMELY PREFETCHES:     813846 LATE PREFETCHES: 370593 DROPPED PREFETCHES: 381482
L1D PREFETCHES SAME FILL-ORIGIN LEVEL: 1554072 DIFFERENT FILL-ORIGIN LEVEL: 0
L1D AVERAGE MISS LATENCY: 2.85097e+07 cycles
L1D RQ	ACCESS:   50629235	FORWARD:          0	MERGED:   10717442	TO_CACHE:   39739715
L1D WQ	ACCESS:   26484793	FORWARD:     216098	MERGED:     166414	TO_CACHE:   26318379
L1D PQ	ACCESS:   17857133	FORWARD:          0	MERGED:    2015958	TO_CACHE:   15797155

L1D UNIQUE REGIONS ACCESSED: 0
L1D REGIONS CONFLICTS: 0
L1D Cross Page Prefetch Requests: 11732107
L1D Same Page Prefetch Requests: 7137816
L1D ROI Sum of L1D PQ occupancy: 230840116
L1D PREFETCHES PUSHED FROM L2C: 0
L1I TOTAL     ACCESS:   41296934  HIT:   28143207  MISS:   13153727  HIT %:    68.1484  MISS %:    31.8516   MPKI: 65.7686
L1I LOAD      ACCESS:   41296934  HIT:   28143207  MISS:   13153727  HIT %:    68.1484  MISS %:    31.8516   MPKI: 65.7686
L1I PREFETCH  REQUESTED:          0  ISSUED:          0  USEFUL:          0  USELESS:          0
L1I USEFUL LOAD PREFETCHES:          0 PREFETCH ISSUED TO LOWER LEVEL:          0  ACCURACY: -nan
L1I TIMELY PREFETCHES:          0 LATE PREFETCHES: 0 DROPPED PREFETCHES: 0
L1I PREFETCHES SAME FILL-ORIGIN LEVEL: 0 DIFFERENT FILL-ORIGIN LEVEL: 0
L1I AVERAGE MISS LATENCY: 16.2856 cycles
L1I RQ	ACCESS:   59976107	FORWARD:          0	MERGED:   16988208	TO_CACHE:   42987899

BTB TOTAL     ACCESS:   31973432  HIT:   16686947  MISS:   15286485  HIT %:      52.19  MISS %:      47.81   MPKI: 76.4324
BTB BRANCH_DIRECT_JUMP	ACCESS:    2345713  HIT:    1227110  MISS:    1118603
BTB BRANCH_INDIRECT	ACCESS:   14157351  HIT:    8110274  MISS:    6047077
BTB BRANCH_CONDITIONAL	ACCESS:    4344280  HIT:    3034534  MISS:    1309746
BTB BRANCH_DIRECT_CALL	ACCESS:    4151171  HIT:    2145079  MISS:    2006092
BTB BRANCH_INDIRECT_CALL	ACCESS:    1411897  HIT:     576080  MISS:     835817
BTB BRANCH_RETURN	ACCESS:    5563020  HIT:    1593870  MISS:    3969150
BTB BRANCH_OTHER ACCESS:          0  HIT:          0  MISS:          0

L2C TOTAL     ACCESS:   22866101  HIT:   19800699  MISS:    3065402  HIT %:    86.5941  MISS %:    13.4059   MPKI: 15.327
L2C LOAD      ACCESS:   16098700  HIT:   14216989  MISS:    1881711  HIT %:    88.3114  MISS %:    11.6886   MPKI: 9.40855
L2C DATA LOAD MPKI: 4.69879
L2C INSTRUCTION LOAD MPKI: 4.70976
L2C RFO       ACCESS:    1656471  HIT:    1056966  MISS:     599505  HIT %:    63.8083  MISS %:    36.1917   MPKI: 2.99752
L2C PREFETCH  ACCESS:    1553879  HIT:    1258746  MISS:     295133  HIT %:    81.0067  MISS %:    18.9933   MPKI: 1.47566
AGUS PREFETCH L1 MISS: 0
L2C DATA PREFETCH MPKI: 1.47566
L2C INSTRUCTION PREFETCH MPKI: 0
L2C WRITEBACK ACCESS:    2830825  HIT:    2686368  MISS:     144457  HIT %:     94.897  MISS %:      5.103   MPKI: 0.722285
L2C LOAD TRANSLATION ACCESS:     166672  HIT:      85855  MISS:      80817  HIT %:    51.5114  MISS %:    48.4886   MPKI: 0.404085
L2C TRANSLATION FROM L1D PREFETCHER ACCESS:     559554  HIT:     495775  MISS:      63779  HIT %:    88.6018  MISS %:    11.3982   MPKI: 0.318895
L2C PREFETCH  REQUESTED:          0  ISSUED:          0  USEFUL:      55944  USELESS:     302629
L2C USEFUL LOAD PREFETCHES:      55944 PREFETCH ISSUED TO LOWER LEVEL:     295133  ACCURACY: 18.9555
L2C TIMELY PREFETCHES:      55944 LATE PREFETCHES: 0 DROPPED PREFETCHES: 0
L2C PREFETCHES SAME FILL-ORIGIN LEVEL: 0 DIFFERENT FILL-ORIGIN LEVEL: 0
L2C AVERAGE MISS LATENCY: 49.9247 cycles
L2C RQ	ACCESS:   18481450	FORWARD:          0	MERGED:          0	TO_CACHE:   18481397
L2C WQ	ACCESS:    2830825	FORWARD:        246	MERGED:          0	TO_CACHE:    2830825
L2C PQ	ACCESS:    1554072	FORWARD:          0	MERGED:          0	TO_CACHE:    1553879

L2C Instructions Evicting Data 472294
L2C Translations Evicting Data 109444
L2C Data Evicting Data 1312262
L2C Instructions Evicting Instructions 441768
L2C Translations Evicting Instructions 27587
L2C Data Evicting Instructions 418917
L2C Instructions Evicting Translations 27891
L2C Translations Evicting Translations 7565
L2C Data Evicting Translations 103217
L2C Dense regions hint from L2: 0
PSCL5 TOTAL     ACCESS:     446983  HIT:     446983  MISS:          0  HIT %:        100  MISS %:          0   MPKI: 0
PSCL5 LOAD TRANSLATION ACCESS:     102763  HIT:     102763  MISS:          0  HIT %:        100  MISS %:          0   MPKI: 0
PSCL5 TRANSLATION FROM L1D PREFETCHER ACCESS:     344220  HIT:     344220  MISS:          0  HIT %:        100  MISS %:          0   MPKI: 0
PSCL5 PREFETCH  REQUESTED:          0  ISSUED:          0  USEFUL:          0  USELESS:          0
PSCL5 USEFUL LOAD PREFETCHES:          0 PREFETCH ISSUED TO LOWER LEVEL:          0  ACCURACY: -nan
PSCL5 TIMELY PREFETCHES:          0 LATE PREFETCHES: 0 DROPPED PREFETCHES: 0
PSCL5 PREFETCHES SAME FILL-ORIGIN LEVEL: 0 DIFFERENT FILL-ORIGIN LEVEL: 0

PSCL4 TOTAL     ACCESS:     412843  HIT:     412063  MISS:        780  HIT %:    99.8111  MISS %:   0.188934   MPKI: 0.0039
PSCL4 LOAD TRANSLATION ACCESS:     101187  HIT:     100407  MISS:        780  HIT %:    99.2291  MISS %:    0.77085   MPKI: 0.0039
PSCL4 TRANSLATION FROM L1D PREFETCHER ACCESS:     311656  HIT:     311656  MISS:          0  HIT %:        100  MISS %:          0   MPKI: 0
PSCL4 PREFETCH  REQUESTED:          0  ISSUED:          0  USEFUL:          0  USELESS:          0
PSCL4 USEFUL LOAD PREFETCHES:          0 PREFETCH ISSUED TO LOWER LEVEL:          0  ACCURACY: -nan
PSCL4 TIMELY PREFETCHES:          0 LATE PREFETCHES: 0 DROPPED PREFETCHES: 0
PSCL4 PREFETCHES SAME FILL-ORIGIN LEVEL: 0 DIFFERENT FILL-ORIGIN LEVEL: 0

PSCL3 TOTAL     ACCESS:     268048  HIT:     248327  MISS:      19721  HIT %:    92.6427  MISS %:    7.35726   MPKI: 0.098605
PSCL3 LOAD TRANSLATION ACCESS:      90751  HIT:      71030  MISS:      19721  HIT %:    78.2691  MISS %:    21.7309   MPKI: 0.098605
PSCL3 TRANSLATION FROM L1D PREFETCHER ACCESS:     177297  HIT:     177297  MISS:          0  HIT %:        100  MISS %:          0   MPKI: 0
PSCL3 PREFETCH  REQUESTED:          0  ISSUED:          0  USEFUL:          0  USELESS:          0
PSCL3 USEFUL LOAD PREFETCHES:          0 PREFETCH ISSUED TO LOWER LEVEL:          0  ACCURACY: -nan
PSCL3 TIMELY PREFETCHES:          0 LATE PREFETCHES: 0 DROPPED PREFETCHES: 0
PSCL3 PREFETCHES SAME FILL-ORIGIN LEVEL: 0 DIFFERENT FILL-ORIGIN LEVEL: 0

PSCL2 TOTAL     ACCESS:     144557  HIT:      97463  MISS:      47094  HIT %:    67.4218  MISS %:    32.5782   MPKI: 0.23547
PSCL2 LOAD TRANSLATION ACCESS:     105484  HIT:      58390  MISS:      47094  HIT %:    55.3544  MISS %:    44.6456   MPKI: 0.23547
PSCL2 TRANSLATION FROM L1D PREFETCHER ACCESS:      39073  HIT:      39073  MISS:          0  HIT %:        100  MISS %:          0   MPKI: 0
PSCL2 PREFETCH  REQUESTED:          0  ISSUED:          0  USEFUL:          0  USELESS:          0
PSCL2 USEFUL LOAD PREFETCHES:          0 PREFETCH ISSUED TO LOWER LEVEL:          0  ACCURACY: -nan
PSCL2 TIMELY PREFETCHES:          0 LATE PREFETCHES: 0 DROPPED PREFETCHES: 0
PSCL2 PREFETCHES SAME FILL-ORIGIN LEVEL: 0 DIFFERENT FILL-ORIGIN LEVEL: 0

LLC TOTAL     ACCESS:    3895017  HIT:    3596954  MISS:     298063  HIT %:    92.3476  MISS %:    7.65242   MPKI: 1.49031
LLC LOAD      ACCESS:    1881711  HIT:    1733986  MISS:     147725  HIT %:    92.1494  MISS %:    7.85057   MPKI: 0.738625
LLC RFO       ACCESS:     599499  HIT:     480623  MISS:     118876  HIT %:    80.1708  MISS %:    19.8292   MPKI: 0.59438
LLC PREFETCH  ACCESS:     295130  HIT:     280101  MISS:      15029  HIT %:    94.9077  MISS %:    5.09233   MPKI: 0.075145
AGUS PREFETCH L1 MISS: 0
LLC WRITEBACK ACCESS:     974081  HIT:     972655  MISS:       1426  HIT %:    99.8536  MISS %:   0.146394   MPKI: 0.00713
LLC LOAD TRANSLATION ACCESS:      80817  HIT:      67113  MISS:      13704  HIT %:    83.0432  MISS %:    16.9568   MPKI: 0.06852
LLC TRANSLATION FROM L1D PREFETCHER ACCESS:      63779  HIT:      62476  MISS:       1303  HIT %:     97.957  MISS %:    2.04299   MPKI: 0.006515
LLC PREFETCH  REQUESTED:          0  ISSUED:          0  USEFUL:       1729  USELESS:      14316
LLC USEFUL LOAD PREFETCHES:       1729 PREFETCH ISSUED TO LOWER LEVEL:      15029  ACCURACY: 11.5044
LLC TIMELY PREFETCHES:       1729 LATE PREFETCHES: 0 DROPPED PREFETCHES: 0
LLC PREFETCHES SAME FILL-ORIGIN LEVEL: 0 DIFFERENT FILL-ORIGIN LEVEL: 0
LLC AVERAGE MISS LATENCY: 219.451 cycles
LLC RQ	ACCESS:    2625812	FORWARD:          0	MERGED:          0	TO_CACHE:    2625806
LLC WQ	ACCESS:     974081	FORWARD:          9	MERGED:          0	TO_CACHE:     974081
LLC PQ	ACCESS:     295133	FORWARD:          0	MERGED:          0	TO_CACHE:     295130

LLC Dense regions hint to LLC: 0

RAW hits: 1576147
Loads Generated: 52205382
Loads sent to L1D: 50629235
Stores Generated: 26484787
Stores sent to L1D: 26484793
Major fault: 0 Minor fault: 6405
Allocated PAGES: 6405
Completed 

DRAM Statistics
 CHANNEL 0
 RQ ROW_BUFFER_HIT:      71411  ROW_BUFFER_MISS:     225226
 DBUS_CONGESTED:         62
 WQ ROW_BUFFER_HIT:      26702  ROW_BUFFER_MISS:     139164  FULL:          0

 AVG_CONGESTED_CYCLE: 4
 All warmup complete: 2
Channel 0 Bank busy for read cycles: 0
Channel 0 Bank busy for write cycles: 0
Channel 0
Rank 0
0banks busy for read cycles: 749128060
0banks busy for write cycles: 58823
1banks busy for read cycles: 16458722
1banks busy for write cycles: 9025977
2banks busy for read cycles: 2416076
2banks busy for write cycles: 1794994
3banks busy for read cycles: 536319
3banks busy for write cycles: 496399
4banks busy for read cycles: 109002
4banks busy for write cycles: 208756
5banks busy for read cycles: 124797
5banks busy for write cycles: 128527
6banks busy for read cycles: 113451
6banks busy for write cycles: 112963
7banks busy for read cycles: 233793
7banks busy for write cycles: 209791
8banks busy for read cycles: 1412710
8banks busy for write cycles: 1743224

CPU 0 Branch Prediction Accuracy: 99.9107% MPKI: 0.163205 Average ROB Occupancy at Mispredict: 44.8688
Branch types
NOT_BRANCH: 163456043 81.728%
BRANCH_DIRECT_JUMP: 2345713 1.17286%
BRANCH_INDIRECT: 14157351 7.07868%
BRANCH_CONDITIONAL: 8914733 4.45737%
BRANCH_DIRECT_CALL: 4151171 2.07559%
BRANCH_INDIRECT_CALL: 1411897 0.705948%
BRANCH_RETURN: 5563020 2.78151%
BRANCH_OTHER: 0 0%

DRAM PAGES: 1048576
Allocated PAGES: 6405
