
*** ChampSim Multicore Out-of-Order Simulator ***

Warmup Instructions: 50000000
Simulation Instructions: 200000000
Number of CPUs: 1
LLC sets: 2048
LLC ways: 16
Off-chip DRAM Size: 4096 MB Channels: 1 Width: 64-bit Data Rate: 6400 MT/s
CPU 0 runs traces/spec2k17/srv_76.champsimtrace.xz
.xz
BTB has LRU replacement policy
ITLB has LRU replacement policy
DTLB has LRU replacement policy
STLB has LRU replacement policy
L1I has LRU replacement policy
L1D has LRU replacement policy
Initialize SRRIP state for L2C
Initialize DRRIP state for LLC
Heartbeat CPU 0 instructions: 10000002 cycles: 2946682 heartbeat IPC: 3.39365 cumulative IPC: 3.39365 (Simulation time: 0 hr 0 min 44 sec) 
Heartbeat CPU 0 instructions: 20000002 cycles: 5886379 heartbeat IPC: 3.40171 cumulative IPC: 3.39767 (Simulation time: 0 hr 1 min 15 sec) 
Heartbeat CPU 0 instructions: 30000000 cycles: 8833944 heartbeat IPC: 3.39263 cumulative IPC: 3.39599 (Simulation time: 0 hr 1 min 53 sec) 
*** Reached end of trace for Core: 0 Repeating trace: traces/spec2k17/srv_76.champsimtrace.xz
Heartbeat CPU 0 instructions: 40000002 cycles: 11782234 heartbeat IPC: 3.3918 cumulative IPC: 3.39494 (Simulation time: 0 hr 2 min 21 sec) 
Heartbeat CPU 0 instructions: 50000000 cycles: 14722833 heartbeat IPC: 3.40067 cumulative IPC: 3.39609 (Simulation time: 0 hr 2 min 49 sec) 

Warmup complete CPU 0 instructions: 50000004 cycles: 14722834 (Simulation time: 0 hr 2 min 49 sec) 

Heartbeat CPU 0 instructions: 60000001 cycles: 35055761 heartbeat IPC: 0.491813 cumulative IPC: 0.491813 (Simulation time: 0 hr 3 min 35 sec) 
*** Reached end of trace for Core: 0 Repeating trace: traces/spec2k17/srv_76.champsimtrace.xz
Heartbeat CPU 0 instructions: 70000002 cycles: 55019196 heartbeat IPC: 0.500916 cumulative IPC: 0.496323 (Simulation time: 0 hr 4 min 23 sec) 
Heartbeat CPU 0 instructions: 80000001 cycles: 74949465 heartbeat IPC: 0.501749 cumulative IPC: 0.498118 (Simulation time: 0 hr 5 min 10 sec) 
Heartbeat CPU 0 instructions: 90000001 cycles: 94880751 heartbeat IPC: 0.501724 cumulative IPC: 0.499015 (Simulation time: 0 hr 5 min 56 sec) 
*** Reached end of trace for Core: 0 Repeating trace: traces/spec2k17/srv_76.champsimtrace.xz
Heartbeat CPU 0 instructions: 100000000 cycles: 114788910 heartbeat IPC: 0.502307 cumulative IPC: 0.49967 (Simulation time: 0 hr 6 min 44 sec) 
Heartbeat CPU 0 instructions: 110000000 cycles: 134706177 heartbeat IPC: 0.502077 cumulative IPC: 0.500069 (Simulation time: 0 hr 7 min 31 sec) 
Heartbeat CPU 0 instructions: 120000000 cycles: 154619831 heartbeat IPC: 0.502168 cumulative IPC: 0.500368 (Simulation time: 0 hr 8 min 18 sec) 
*** Reached end of trace for Core: 0 Repeating trace: traces/spec2k17/srv_76.champsimtrace.xz
Heartbeat CPU 0 instructions: 130000001 cycles: 174549241 heartbeat IPC: 0.501771 cumulative IPC: 0.500543 (Simulation time: 0 hr 9 min 6 sec) 
Heartbeat CPU 0 instructions: 140000000 cycles: 194382822 heartbeat IPC: 0.504195 cumulative IPC: 0.500946 (Simulation time: 0 hr 9 min 53 sec) 
Heartbeat CPU 0 instructions: 150000001 cycles: 214242261 heartbeat IPC: 0.503539 cumulative IPC: 0.501204 (Simulation time: 0 hr 10 min 40 sec) 
Heartbeat CPU 0 instructions: 160000003 cycles: 234134040 heartbeat IPC: 0.50272 cumulative IPC: 0.501342 (Simulation time: 0 hr 11 min 27 sec) 
*** Reached end of trace for Core: 0 Repeating trace: traces/spec2k17/srv_76.champsimtrace.xz
Heartbeat CPU 0 instructions: 170000000 cycles: 254090917 heartbeat IPC: 0.50108 cumulative IPC: 0.50132 (Simulation time: 0 hr 12 min 14 sec) 
Heartbeat CPU 0 instructions: 180000001 cycles: 273941413 heartbeat IPC: 0.503766 cumulative IPC: 0.501507 (Simulation time: 0 hr 12 min 59 sec) 
Heartbeat CPU 0 instructions: 190000000 cycles: 293804434 heartbeat IPC: 0.503448 cumulative IPC: 0.501645 (Simulation time: 0 hr 13 min 43 sec) 
*** Reached end of trace for Core: 0 Repeating trace: traces/spec2k17/srv_76.champsimtrace.xz
Heartbeat CPU 0 instructions: 200000003 cycles: 313646395 heartbeat IPC: 0.503983 cumulative IPC: 0.501801 (Simulation time: 0 hr 14 min 23 sec) 
Heartbeat CPU 0 instructions: 210000000 cycles: 333460473 heartbeat IPC: 0.504692 cumulative IPC: 0.50198 (Simulation time: 0 hr 14 min 57 sec) 
Heartbeat CPU 0 instructions: 220000000 cycles: 353286159 heartbeat IPC: 0.504396 cumulative IPC: 0.502122 (Simulation time: 0 hr 15 min 29 sec) 
*** Reached end of trace for Core: 0 Repeating trace: traces/spec2k17/srv_76.champsimtrace.xz
Heartbeat CPU 0 instructions: 230000003 cycles: 373184186 heartbeat IPC: 0.502563 cumulative IPC: 0.502146 (Simulation time: 0 hr 16 min 0 sec) 
Heartbeat CPU 0 instructions: 240000000 cycles: 392937355 heartbeat IPC: 0.506248 cumulative IPC: 0.50236 (Simulation time: 0 hr 16 min 31 sec) 
Heartbeat CPU 0 instructions: 250000001 cycles: 412827043 heartbeat IPC: 0.502773 cumulative IPC: 0.502381 (Simulation time: 0 hr 17 min 2 sec) 
Finished CPU 0 instructions: 200000000 cycles: 398104211 cumulative IPC: 0.502381 (Simulation time: 0 hr 17 min 2 sec) 

ChampSim completed all CPUs

Region of Interest Statistics

CPU 0 cumulative IPC: 0.502381 instructions: 200000000 cycles: 398104211
ITLB TOTAL     ACCESS:   33780852  HIT:   32249607  MISS:    1531245  HIT %:    95.4671  MISS %:    4.53288   MPKI: 7.65623
ITLB LOAD TRANSLATION ACCESS:   33780852  HIT:   32249607  MISS:    1531245  HIT %:    95.4671  MISS %:    4.53288   MPKI: 7.65623
ITLB PREFETCH  REQUESTED:          0  ISSUED:          0  USEFUL:          0  USELESS:          0
ITLB USEFUL LOAD PREFETCHES:          0 PREFETCH ISSUED TO LOWER LEVEL:          0  ACCURACY: -nan
ITLB TIMELY PREFETCHES:          0 LATE PREFETCHES: 0 DROPPED PREFETCHES: 0
ITLB PREFETCHES SAME FILL-ORIGIN LEVEL: 0 DIFFERENT FILL-ORIGIN LEVEL: 0
ITLB AVERAGE MISS LATENCY: 9.2297 cycles
ITLB RQ	ACCESS:   40661125	FORWARD:          0	MERGED:    6385834	TO_CACHE:   34275291

DTLB TOTAL     ACCESS:   39928714  HIT:   38400470  MISS:    1528244  HIT %:    96.1726  MISS %:    3.82743   MPKI: 7.64122
DTLB LOAD TRANSLATION ACCESS:   39928714  HIT:   38400470  MISS:    1528244  HIT %:    96.1726  MISS %:    3.82743   MPKI: 7.64122
DTLB PREFETCH  REQUESTED:          0  ISSUED:          0  USEFUL:          0  USELESS:          0
DTLB USEFUL LOAD PREFETCHES:          0 PREFETCH ISSUED TO LOWER LEVEL:          0  ACCURACY: -nan
DTLB TIMELY PREFETCHES:          0 LATE PREFETCHES: 0 DROPPED PREFETCHES: 0
DTLB PREFETCHES SAME FILL-ORIGIN LEVEL: 0 DIFFERENT FILL-ORIGIN LEVEL: 0
DTLB AVERAGE MISS LATENCY: 14.9922 cycles
DTLB RQ	ACCESS:   61042466	FORWARD:          0	MERGED:   20718798	TO_CACHE:   40323668

STLB TOTAL     ACCESS:    9527476  HIT:    9448721  MISS:      78755  HIT %:    99.1734  MISS %:   0.826609   MPKI: 0.393775
STLB LOAD TRANSLATION ACCESS:    3059489  HIT:    2982091  MISS:      77398  HIT %:    97.4702  MISS %:    2.52977   MPKI: 0.38699
STLB TRANSLATION FROM L1D PREFETCHER ACCESS:    6467987  HIT:    6466630  MISS:       1357  HIT %:     99.979  MISS %:  0.0209803   MPKI: 0.006785
STLB PREFETCH  REQUESTED:          0  ISSUED:          0  USEFUL:       1254  USELESS:        102
STLB USEFUL LOAD PREFETCHES:       1254 PREFETCH ISSUED TO LOWER LEVEL:          0  ACCURACY: inf
STLB TIMELY PREFETCHES:       1254 LATE PREFETCHES: 351 DROPPED PREFETCHES: 20310
STLB PREFETCHES SAME FILL-ORIGIN LEVEL: 0 DIFFERENT FILL-ORIGIN LEVEL: 0
STLB AVERAGE MISS LATENCY: 127.643 cycles
STLB RQ	ACCESS:   10615241	FORWARD:          0	MERGED:    1066615	TO_CACHE:    9548626

STLB Hit, L1D data hit: 0
STLB Hit, L2C data hit: 0
STLB Hit, LLC data hit: 0
STLB Hit, LLC data miss: 0
STLB STLB hints to L2: 0
L1D TOTAL     ACCESS:   55705099  HIT:   48759771  MISS:    6945328  HIT %:     87.532  MISS %:     12.468   MPKI: 34.7266
L1D LOAD      ACCESS:   26611745  HIT:   23634698  MISS:    2977047  HIT %:     88.813  MISS %:     11.187   MPKI: 14.8852
L1D RFO       ACCESS:   22483516  HIT:   18772627  MISS:    3710889  HIT %:    83.4951  MISS %:    16.5049   MPKI: 18.5544
L1D PREFETCH  ACCESS:    6609838  HIT:    6352446  MISS:     257392  HIT %:    96.1059  MISS %:    3.89407   MPKI: 1.28696
AGUS PREFETCH L1 MISS: 0
L1D PREFETCH  REQUESTED:   18749156  ISSUED:   18748025  USEFUL:     128840  USELESS:     128539
L1D USEFUL LOAD PREFETCHES:     128840 PREFETCH ISSUED TO LOWER LEVEL:     429945  ACCURACY: 29.9666
L1D TIMELY PREFETCHES:     128840 LATE PREFETCHES: 172350 DROPPED PREFETCHES: 20853
L1D PREFETCHES SAME FILL-ORIGIN LEVEL: 429945 DIFFERENT FILL-ORIGIN LEVEL: 0
L1D AVERAGE MISS LATENCY: 5.54434e+06 cycles
L1D RQ	ACCESS:   45143324	FORWARD:          0	MERGED:   17823961	TO_CACHE:   27040135
L1D WQ	ACCESS:   34202058	FORWARD:     317144	MERGED:     199727	TO_CACHE:   34002331
L1D PQ	ACCESS:   11192273	FORWARD:          0	MERGED:    3598605	TO_CACHE:    7555752

L1D UNIQUE REGIONS ACCESSED: 0
L1D REGIONS CONFLICTS: 0
L1D Cross Page Prefetch Requests: 4442308
L1D Same Page Prefetch Requests: 8497601
L1D ROI Sum of L1D PQ occupancy: 108474198
L1D PREFETCHES PUSHED FROM L2C: 0
L1I TOTAL     ACCESS:   38019226  HIT:   28968184  MISS:    9051042  HIT %:    76.1935  MISS %:    23.8065   MPKI: 45.2552
L1I LOAD      ACCESS:   38019226  HIT:   28968184  MISS:    9051042  HIT %:    76.1935  MISS %:    23.8065   MPKI: 45.2552
L1I PREFETCH  REQUESTED:          0  ISSUED:          0  USEFUL:          0  USELESS:          0
L1I USEFUL LOAD PREFETCHES:          0 PREFETCH ISSUED TO LOWER LEVEL:          0  ACCURACY: -nan
L1I TIMELY PREFETCHES:          0 LATE PREFETCHES: 0 DROPPED PREFETCHES: 0
L1I PREFETCHES SAME FILL-ORIGIN LEVEL: 0 DIFFERENT FILL-ORIGIN LEVEL: 0
L1I AVERAGE MISS LATENCY: 16.7921 cycles
L1I RQ	ACCESS:   58979967	FORWARD:          0	MERGED:   18318842	TO_CACHE:   40661125

BTB TOTAL     ACCESS:   25729442  HIT:   24177547  MISS:    1551895  HIT %:    93.9684  MISS %:    6.03159   MPKI: 7.75948
BTB BRANCH_DIRECT_JUMP	ACCESS:    1656284  HIT:    1645281  MISS:      11003
BTB BRANCH_INDIRECT	ACCESS:    9938660  HIT:    9422852  MISS:     515808
BTB BRANCH_CONDITIONAL	ACCESS:    7324845  HIT:    7309493  MISS:      15352
BTB BRANCH_DIRECT_CALL	ACCESS:    2813378  HIT:    2777728  MISS:      35650
BTB BRANCH_INDIRECT_CALL	ACCESS:     591510  HIT:     480327  MISS:     111183
BTB BRANCH_RETURN	ACCESS:    3404765  HIT:    2541866  MISS:     862899
BTB BRANCH_OTHER ACCESS:          0  HIT:          0  MISS:          0

L2C TOTAL     ACCESS:   20494360  HIT:   13789678  MISS:    6704682  HIT %:    67.2852  MISS %:    32.7148   MPKI: 33.5234
L2C LOAD      ACCESS:   11855676  HIT:    9198191  MISS:    2657485  HIT %:    77.5847  MISS %:    22.4153   MPKI: 13.2874
L2C DATA LOAD MPKI: 10.453
L2C INSTRUCTION LOAD MPKI: 2.8344
L2C RFO       ACCESS:    3710685  HIT:     156550  MISS:    3554135  HIT %:     4.2189  MISS %:    95.7811   MPKI: 17.7707
L2C PREFETCH  ACCESS:     429933  HIT:     126860  MISS:     303073  HIT %:    29.5069  MISS %:    70.4931   MPKI: 1.51537
AGUS PREFETCH L1 MISS: 0
L2C DATA PREFETCH MPKI: 1.51537
L2C INSTRUCTION PREFETCH MPKI: 0
L2C WRITEBACK ACCESS:    4370843  HIT:    4235688  MISS:     135155  HIT %:    96.9078  MISS %:     3.0922   MPKI: 0.675775
L2C LOAD TRANSLATION ACCESS:      89095  HIT:      47624  MISS:      41471  HIT %:    53.4531  MISS %:    46.5469   MPKI: 0.207355
L2C TRANSLATION FROM L1D PREFETCHER ACCESS:      38128  HIT:      24765  MISS:      13363  HIT %:    64.9523  MISS %:    35.0477   MPKI: 0.066815
L2C PREFETCH  REQUESTED:          0  ISSUED:          0  USEFUL:      18688  USELESS:     297841
L2C USEFUL LOAD PREFETCHES:      18688 PREFETCH ISSUED TO LOWER LEVEL:     303073  ACCURACY: 6.16617
L2C TIMELY PREFETCHES:      18688 LATE PREFETCHES: 0 DROPPED PREFETCHES: 0
L2C PREFETCHES SAME FILL-ORIGIN LEVEL: 0 DIFFERENT FILL-ORIGIN LEVEL: 0
L2C AVERAGE MISS LATENCY: 158.634 cycles
L2C RQ	ACCESS:   15693648	FORWARD:          0	MERGED:          0	TO_CACHE:   15693585
L2C WQ	ACCESS:    4370843	FORWARD:         75	MERGED:          0	TO_CACHE:    4370843
L2C PQ	ACCESS:     429945	FORWARD:          0	MERGED:          0	TO_CACHE:     429933

L2C Instructions Evicting Data 520856
L2C Translations Evicting Data 50080
L2C Data Evicting Data 5390418
L2C Instructions Evicting Instructions 41417
L2C Translations Evicting Instructions 4278
L2C Data Evicting Instructions 508493
L2C Instructions Evicting Translations 4607
L2C Translations Evicting Translations 476
L2C Data Evicting Translations 48902
L2C Dense regions hint from L2: 0
PSCL5 TOTAL     ACCESS:      98820  HIT:      98820  MISS:          0  HIT %:        100  MISS %:          0   MPKI: 0
PSCL5 LOAD TRANSLATION ACCESS:      77047  HIT:      77047  MISS:          0  HIT %:        100  MISS %:          0   MPKI: 0
PSCL5 TRANSLATION FROM L1D PREFETCHER ACCESS:      21773  HIT:      21773  MISS:          0  HIT %:        100  MISS %:          0   MPKI: 0
PSCL5 PREFETCH  REQUESTED:          0  ISSUED:          0  USEFUL:          0  USELESS:          0
PSCL5 USEFUL LOAD PREFETCHES:          0 PREFETCH ISSUED TO LOWER LEVEL:          0  ACCURACY: -nan
PSCL5 TIMELY PREFETCHES:          0 LATE PREFETCHES: 0 DROPPED PREFETCHES: 0
PSCL5 PREFETCHES SAME FILL-ORIGIN LEVEL: 0 DIFFERENT FILL-ORIGIN LEVEL: 0

PSCL4 TOTAL     ACCESS:      93314  HIT:      93094  MISS:        220  HIT %:    99.7642  MISS %:   0.235763   MPKI: 0.0011
PSCL4 LOAD TRANSLATION ACCESS:      74715  HIT:      74495  MISS:        220  HIT %:    99.7055  MISS %:   0.294452   MPKI: 0.0011
PSCL4 TRANSLATION FROM L1D PREFETCHER ACCESS:      18599  HIT:      18599  MISS:          0  HIT %:        100  MISS %:          0   MPKI: 0
PSCL4 PREFETCH  REQUESTED:          0  ISSUED:          0  USEFUL:          0  USELESS:          0
PSCL4 USEFUL LOAD PREFETCHES:          0 PREFETCH ISSUED TO LOWER LEVEL:          0  ACCURACY: -nan
PSCL4 TIMELY PREFETCHES:          0 LATE PREFETCHES: 0 DROPPED PREFETCHES: 0
PSCL4 PREFETCHES SAME FILL-ORIGIN LEVEL: 0 DIFFERENT FILL-ORIGIN LEVEL: 0

PSCL3 TOTAL     ACCESS:      89199  HIT:      87856  MISS:       1343  HIT %:    98.4944  MISS %:    1.50562   MPKI: 0.006715
PSCL3 LOAD TRANSLATION ACCESS:      72514  HIT:      71171  MISS:       1343  HIT %:    98.1479  MISS %:    1.85206   MPKI: 0.006715
PSCL3 TRANSLATION FROM L1D PREFETCHER ACCESS:      16685  HIT:      16685  MISS:          0  HIT %:        100  MISS %:          0   MPKI: 0
PSCL3 PREFETCH  REQUESTED:          0  ISSUED:          0  USEFUL:          0  USELESS:          0
PSCL3 USEFUL LOAD PREFETCHES:          0 PREFETCH ISSUED TO LOWER LEVEL:          0  ACCURACY: -nan
PSCL3 TIMELY PREFETCHES:          0 LATE PREFETCHES: 0 DROPPED PREFETCHES: 0
PSCL3 PREFETCHES SAME FILL-ORIGIN LEVEL: 0 DIFFERENT FILL-ORIGIN LEVEL: 0

PSCL2 TOTAL     ACCESS:      86774  HIT:      75902  MISS:      10872  HIT %:    87.4709  MISS %:    12.5291   MPKI: 0.05436
PSCL2 LOAD TRANSLATION ACCESS:      77388  HIT:      66516  MISS:      10872  HIT %:    85.9513  MISS %:    14.0487   MPKI: 0.05436
PSCL2 TRANSLATION FROM L1D PREFETCHER ACCESS:       9386  HIT:       9386  MISS:          0  HIT %:        100  MISS %:          0   MPKI: 0
PSCL2 PREFETCH  REQUESTED:          0  ISSUED:          0  USEFUL:          0  USELESS:          0
PSCL2 USEFUL LOAD PREFETCHES:          0 PREFETCH ISSUED TO LOWER LEVEL:          0  ACCURACY: -nan
PSCL2 TIMELY PREFETCHES:          0 LATE PREFETCHES: 0 DROPPED PREFETCHES: 0
PSCL2 PREFETCHES SAME FILL-ORIGIN LEVEL: 0 DIFFERENT FILL-ORIGIN LEVEL: 0

LLC TOTAL     ACCESS:   10622677  HIT:    4268882  MISS:    6353795  HIT %:    40.1865  MISS %:    59.8135   MPKI: 31.769
LLC LOAD      ACCESS:    2657485  HIT:    1576944  MISS:    1080541  HIT %:    59.3397  MISS %:    40.6603   MPKI: 5.40271
LLC RFO       ACCESS:    3554127  HIT:     982151  MISS:    2571976  HIT %:    27.6341  MISS %:    72.3659   MPKI: 12.8599
LLC PREFETCH  ACCESS:     303073  HIT:      91621  MISS:     211452  HIT %:    30.2307  MISS %:    69.7693   MPKI: 1.05726
AGUS PREFETCH L1 MISS: 0
LLC WRITEBACK ACCESS:    4053158  HIT:    1601600  MISS:    2451558  HIT %:    39.5149  MISS %:    60.4851   MPKI: 12.2578
LLC LOAD TRANSLATION ACCESS:      41471  HIT:       8863  MISS:      32608  HIT %:    21.3716  MISS %:    78.6284   MPKI: 0.16304
LLC TRANSLATION FROM L1D PREFETCHER ACCESS:      13363  HIT:       7703  MISS:       5660  HIT %:    57.6442  MISS %:    42.3558   MPKI: 0.0283
LLC PREFETCH  REQUESTED:          0  ISSUED:          0  USEFUL:       1412  USELESS:     218146
LLC USEFUL LOAD PREFETCHES:       1412 PREFETCH ISSUED TO LOWER LEVEL:     211452  ACCURACY: 0.667764
LLC TIMELY PREFETCHES:       1412 LATE PREFETCHES: 0 DROPPED PREFETCHES: 0
LLC PREFETCHES SAME FILL-ORIGIN LEVEL: 0 DIFFERENT FILL-ORIGIN LEVEL: 0
LLC AVERAGE MISS LATENCY: 136.375 cycles
LLC RQ	ACCESS:    6266454	FORWARD:          0	MERGED:          0	TO_CACHE:    6266446
LLC WQ	ACCESS:    4053158	FORWARD:          8	MERGED:          0	TO_CACHE:    4053158
LLC PQ	ACCESS:     303073	FORWARD:          0	MERGED:          0	TO_CACHE:     303073

LLC Dense regions hint to LLC: 0

RAW hits: 2480230
Loads Generated: 47623555
Loads sent to L1D: 45143324
Stores Generated: 34202037
Stores sent to L1D: 34202058
Major fault: 0 Minor fault: 9169
Allocated PAGES: 9169
Completed 

DRAM Statistics
 CHANNEL 0
 RQ ROW_BUFFER_HIT:    1810094  ROW_BUFFER_MISS:    2091863
 DBUS_CONGESTED:       1997
 WQ ROW_BUFFER_HIT:     556810  ROW_BUFFER_MISS:    2076407  FULL:      57476

 AVG_CONGESTED_CYCLE: 3
 All warmup complete: 2
Channel 0 Bank busy for read cycles: 0
Channel 0 Bank busy for write cycles: 0
Channel 0
Rank 0
0banks busy for read cycles: 172058216
0banks busy for write cycles: 267386
1banks busy for read cycles: 36795039
1banks busy for write cycles: 37922172
2banks busy for read cycles: 14702900
2banks busy for write cycles: 13405482
3banks busy for read cycles: 17471849
3banks busy for write cycles: 6268350
4banks busy for read cycles: 7191806
4banks busy for write cycles: 4087358
5banks busy for read cycles: 5786404
5banks busy for write cycles: 3426540
6banks busy for read cycles: 8808676
6banks busy for write cycles: 3473529
7banks busy for read cycles: 8542127
7banks busy for write cycles: 6014920
8banks busy for read cycles: 15261875
8banks busy for write cycles: 36619583

CPU 0 Branch Prediction Accuracy: 99.9457% MPKI: 0.083 Average ROB Occupancy at Mispredict: 124.535
Branch types
NOT_BRANCH: 169416910 84.7085%
BRANCH_DIRECT_JUMP: 1656284 0.828142%
BRANCH_INDIRECT: 9938660 4.96933%
BRANCH_CONDITIONAL: 12178317 6.08916%
BRANCH_DIRECT_CALL: 2813378 1.40669%
BRANCH_INDIRECT_CALL: 591510 0.295755%
BRANCH_RETURN: 3404765 1.70238%
BRANCH_OTHER: 0 0%

DRAM PAGES: 1048576
Allocated PAGES: 9169
