
*** ChampSim Multicore Out-of-Order Simulator ***

Warmup Instructions: 50000000
Simulation Instructions: 200000000
Number of CPUs: 1
LLC sets: 2048
LLC ways: 16
Off-chip DRAM Size: 4096 MB Channels: 1 Width: 64-bit Data Rate: 6400 MT/s
CPU 0 runs traces/spec2k17/client_003.champsimtrace.xz
.xz
BTB has LRU replacement policy
ITLB has LRU replacement policy
DTLB has LRU replacement policy
STLB has LRU replacement policy
L1I has LRU replacement policy
L1D has LRU replacement policy
Initialize SRRIP state for L2C
Initialize DRRIP state for LLC
Heartbeat CPU 0 instructions: 10000002 cycles: 2756770 heartbeat IPC: 3.62743 cumulative IPC: 3.62743 (Simulation time: 0 hr 0 min 27 sec) 
Heartbeat CPU 0 instructions: 20000001 cycles: 5529569 heartbeat IPC: 3.60646 cumulative IPC: 3.61692 (Simulation time: 0 hr 0 min 52 sec) 
Heartbeat CPU 0 instructions: 30000003 cycles: 8283373 heartbeat IPC: 3.63134 cumulative IPC: 3.62171 (Simulation time: 0 hr 1 min 20 sec) 
Heartbeat CPU 0 instructions: 40000003 cycles: 11039637 heartbeat IPC: 3.6281 cumulative IPC: 3.62331 (Simulation time: 0 hr 1 min 48 sec) 
Heartbeat CPU 0 instructions: 50000000 cycles: 13809564 heartbeat IPC: 3.6102 cumulative IPC: 3.62068 (Simulation time: 0 hr 2 min 15 sec) 

Warmup complete CPU 0 instructions: 50000004 cycles: 13809565 (Simulation time: 0 hr 2 min 15 sec) 

Heartbeat CPU 0 instructions: 60000001 cycles: 29586211 heartbeat IPC: 0.633848 cumulative IPC: 0.633848 (Simulation time: 0 hr 2 min 49 sec) 
Heartbeat CPU 0 instructions: 70000002 cycles: 45056338 heartbeat IPC: 0.646407 cumulative IPC: 0.640066 (Simulation time: 0 hr 3 min 24 sec) 
Heartbeat CPU 0 instructions: 80000003 cycles: 61098449 heartbeat IPC: 0.623359 cumulative IPC: 0.634399 (Simulation time: 0 hr 3 min 58 sec) 
Heartbeat CPU 0 instructions: 90000000 cycles: 79622520 heartbeat IPC: 0.539838 cumulative IPC: 0.607783 (Simulation time: 0 hr 4 min 33 sec) 
Heartbeat CPU 0 instructions: 100000000 cycles: 90545727 heartbeat IPC: 0.915482 cumulative IPC: 0.651583 (Simulation time: 0 hr 4 min 59 sec) 
*** Reached end of trace for Core: 0 Repeating trace: traces/spec2k17/client_003.champsimtrace.xz
Heartbeat CPU 0 instructions: 110000000 cycles: 106642863 heartbeat IPC: 0.621229 cumulative IPC: 0.64632 (Simulation time: 0 hr 5 min 32 sec) 
Heartbeat CPU 0 instructions: 120000002 cycles: 129008078 heartbeat IPC: 0.447123 cumulative IPC: 0.607647 (Simulation time: 0 hr 6 min 8 sec) 
Heartbeat CPU 0 instructions: 130000001 cycles: 144823750 heartbeat IPC: 0.632284 cumulative IPC: 0.610621 (Simulation time: 0 hr 6 min 43 sec) 
Heartbeat CPU 0 instructions: 140000001 cycles: 160831674 heartbeat IPC: 0.624691 cumulative IPC: 0.612153 (Simulation time: 0 hr 7 min 19 sec) 
Heartbeat CPU 0 instructions: 150000000 cycles: 175987022 heartbeat IPC: 0.659833 cumulative IPC: 0.616609 (Simulation time: 0 hr 7 min 53 sec) 
Heartbeat CPU 0 instructions: 160000001 cycles: 191461802 heartbeat IPC: 0.646213 cumulative IPC: 0.619187 (Simulation time: 0 hr 8 min 29 sec) 
Heartbeat CPU 0 instructions: 170000002 cycles: 206360609 heartbeat IPC: 0.671195 cumulative IPC: 0.623211 (Simulation time: 0 hr 9 min 4 sec) 
Heartbeat CPU 0 instructions: 180000003 cycles: 221960995 heartbeat IPC: 0.64101 cumulative IPC: 0.624545 (Simulation time: 0 hr 9 min 40 sec) 
Heartbeat CPU 0 instructions: 190000002 cycles: 241252819 heartbeat IPC: 0.518354 cumulative IPC: 0.615538 (Simulation time: 0 hr 10 min 15 sec) 
Heartbeat CPU 0 instructions: 200000001 cycles: 251987304 heartbeat IPC: 0.931577 cumulative IPC: 0.629782 (Simulation time: 0 hr 10 min 42 sec) 
*** Reached end of trace for Core: 0 Repeating trace: traces/spec2k17/client_003.champsimtrace.xz
Heartbeat CPU 0 instructions: 210000000 cycles: 267508578 heartbeat IPC: 0.644277 cumulative IPC: 0.630669 (Simulation time: 0 hr 11 min 15 sec) 
Heartbeat CPU 0 instructions: 220000000 cycles: 287343688 heartbeat IPC: 0.504157 cumulative IPC: 0.621495 (Simulation time: 0 hr 11 min 50 sec) 
Heartbeat CPU 0 instructions: 230000000 cycles: 306812406 heartbeat IPC: 0.513645 cumulative IPC: 0.614329 (Simulation time: 0 hr 12 min 25 sec) 
Heartbeat CPU 0 instructions: 240000003 cycles: 322574698 heartbeat IPC: 0.634426 cumulative IPC: 0.615354 (Simulation time: 0 hr 13 min 1 sec) 
Heartbeat CPU 0 instructions: 250000003 cycles: 337907045 heartbeat IPC: 0.652216 cumulative IPC: 0.617098 (Simulation time: 0 hr 13 min 37 sec) 
Finished CPU 0 instructions: 200000003 cycles: 324097481 cumulative IPC: 0.617098 (Simulation time: 0 hr 13 min 37 sec) 

ChampSim completed all CPUs

Region of Interest Statistics

CPU 0 cumulative IPC: 0.617098 instructions: 200000003 cycles: 324097481
ITLB TOTAL     ACCESS:   33376684  HIT:   33046533  MISS:     330151  HIT %:    99.0108  MISS %:   0.989167   MPKI: 1.65075
ITLB LOAD TRANSLATION ACCESS:   33376684  HIT:   33046533  MISS:     330151  HIT %:    99.0108  MISS %:   0.989167   MPKI: 1.65075
ITLB PREFETCH  REQUESTED:          0  ISSUED:          0  USEFUL:          0  USELESS:          0
ITLB USEFUL LOAD PREFETCHES:          0 PREFETCH ISSUED TO LOWER LEVEL:          0  ACCURACY: -nan
ITLB TIMELY PREFETCHES:          0 LATE PREFETCHES: 0 DROPPED PREFETCHES: 0
ITLB PREFETCHES SAME FILL-ORIGIN LEVEL: 0 DIFFERENT FILL-ORIGIN LEVEL: 0
ITLB AVERAGE MISS LATENCY: 9.90873 cycles
ITLB RQ	ACCESS:   38124292	FORWARD:          0	MERGED:    4651954	TO_CACHE:   33472338

DTLB TOTAL     ACCESS:   38182762  HIT:   37743384  MISS:     439378  HIT %:    98.8493  MISS %:    1.15072   MPKI: 2.19689
DTLB LOAD TRANSLATION ACCESS:   38182762  HIT:   37743384  MISS:     439378  HIT %:    98.8493  MISS %:    1.15072   MPKI: 2.19689
DTLB PREFETCH  REQUESTED:          0  ISSUED:          0  USEFUL:          0  USELESS:          0
DTLB USEFUL LOAD PREFETCHES:          0 PREFETCH ISSUED TO LOWER LEVEL:          0  ACCURACY: -nan
DTLB TIMELY PREFETCHES:          0 LATE PREFETCHES: 0 DROPPED PREFETCHES: 0
DTLB PREFETCHES SAME FILL-ORIGIN LEVEL: 0 DIFFERENT FILL-ORIGIN LEVEL: 0
DTLB AVERAGE MISS LATENCY: 10.9328 cycles
DTLB RQ	ACCESS:   53268196	FORWARD:          0	MERGED:   15028633	TO_CACHE:   38239563

STLB TOTAL     ACCESS:    6653742  HIT:    6639203  MISS:      14539  HIT %:    99.7815  MISS %:   0.218509   MPKI: 0.072695
STLB LOAD TRANSLATION ACCESS:     769529  HIT:     755549  MISS:      13980  HIT %:    98.1833  MISS %:     1.8167   MPKI: 0.0699
STLB TRANSLATION FROM L1D PREFETCHER ACCESS:    5884213  HIT:    5883654  MISS:        559  HIT %:    99.9905  MISS %:     0.0095   MPKI: 0.002795
STLB PREFETCH  REQUESTED:          0  ISSUED:          0  USEFUL:        524  USELESS:         31
STLB USEFUL LOAD PREFETCHES:        524 PREFETCH ISSUED TO LOWER LEVEL:          0  ACCURACY: inf
STLB TIMELY PREFETCHES:        524 LATE PREFETCHES: 13 DROPPED PREFETCHES: 90962
STLB PREFETCHES SAME FILL-ORIGIN LEVEL: 0 DIFFERENT FILL-ORIGIN LEVEL: 0
STLB AVERAGE MISS LATENCY: 87.9924 cycles
STLB RQ	ACCESS:    8116825	FORWARD:          0	MERGED:    1371865	TO_CACHE:    6744960

STLB Hit, L1D data hit: 0
STLB Hit, L2C data hit: 0
STLB Hit, LLC data hit: 0
STLB Hit, LLC data miss: 0
STLB STLB hints to L2: 0
L1D TOTAL     ACCESS:   57806458  HIT:   56376072  MISS:    1430386  HIT %:    97.5256  MISS %:    2.47444   MPKI: 7.15193
L1D LOAD      ACCESS:   25846383  HIT:   25293012  MISS:     553371  HIT %:     97.859  MISS %:      2.141   MPKI: 2.76685
L1D RFO       ACCESS:   24866070  HIT:   24095516  MISS:     770554  HIT %:    96.9012  MISS %:    3.09882   MPKI: 3.85277
L1D PREFETCH  ACCESS:    7094005  HIT:    6987544  MISS:     106461  HIT %:    98.4993  MISS %:    1.50072   MPKI: 0.532305
AGUS PREFETCH L1 MISS: 0
L1D PREFETCH  REQUESTED:   17096162  ISSUED:   17096070  USEFUL:      53291  USELESS:      53131
L1D USEFUL LOAD PREFETCHES:      53291 PREFETCH ISSUED TO LOWER LEVEL:     131955  ACCURACY: 40.3857
L1D TIMELY PREFETCHES:      53291 LATE PREFETCHES: 25342 DROPPED PREFETCHES: 107412
L1D PREFETCHES SAME FILL-ORIGIN LEVEL: 131955 DIFFERENT FILL-ORIGIN LEVEL: 0
L1D AVERAGE MISS LATENCY: 3.14077e+06 cycles
L1D RQ	ACCESS:   42837507	FORWARD:          0	MERGED:   16198351	TO_CACHE:   26052800
L1D WQ	ACCESS:   28298364	FORWARD:     627364	MERGED:    1082968	TO_CACHE:   27215396
L1D PQ	ACCESS:    9748774	FORWARD:          0	MERGED:    2360470	TO_CACHE:    7347296

L1D UNIQUE REGIONS ACCESSED: 0
L1D REGIONS CONFLICTS: 0
L1D Cross Page Prefetch Requests: 3885632
L1D Same Page Prefetch Requests: 7317950
L1D ROI Sum of L1D PQ occupancy: 100496720
L1D PREFETCHES PUSHED FROM L2C: 0
L1I TOTAL     ACCESS:   37654437  HIT:   35728713  MISS:    1925724  HIT %:    94.8858  MISS %:     5.1142   MPKI: 9.62862
L1I LOAD      ACCESS:   37654437  HIT:   35728713  MISS:    1925724  HIT %:    94.8858  MISS %:     5.1142   MPKI: 9.62862
L1I PREFETCH  REQUESTED:          0  ISSUED:          0  USEFUL:          0  USELESS:          0
L1I USEFUL LOAD PREFETCHES:          0 PREFETCH ISSUED TO LOWER LEVEL:          0  ACCURACY: -nan
L1I TIMELY PREFETCHES:          0 LATE PREFETCHES: 0 DROPPED PREFETCHES: 0
L1I PREFETCHES SAME FILL-ORIGIN LEVEL: 0 DIFFERENT FILL-ORIGIN LEVEL: 0
L1I AVERAGE MISS LATENCY: 22.9611 cycles
L1I RQ	ACCESS:   61238509	FORWARD:          0	MERGED:   23114217	TO_CACHE:   38124292

BTB TOTAL     ACCESS:   31972587  HIT:   29330609  MISS:    2641978  HIT %:    91.7367  MISS %:    8.26326   MPKI: 13.2099
BTB BRANCH_DIRECT_JUMP	ACCESS:    1668733  HIT:    1599654  MISS:      69079
BTB BRANCH_INDIRECT	ACCESS:   12964857  HIT:   12148638  MISS:     816219
BTB BRANCH_CONDITIONAL	ACCESS:    9737527  HIT:    9606081  MISS:     131446
BTB BRANCH_DIRECT_CALL	ACCESS:    3293738  HIT:    3140897  MISS:     152841
BTB BRANCH_INDIRECT_CALL	ACCESS:     505068  HIT:     384959  MISS:     120109
BTB BRANCH_RETURN	ACCESS:    3802664  HIT:    2450380  MISS:    1352284
BTB BRANCH_OTHER ACCESS:          0  HIT:          0  MISS:          0

L2C TOTAL     ACCESS:    4360451  HIT:    3122760  MISS:    1237691  HIT %:    71.6155  MISS %:    28.3845   MPKI: 6.18845
L2C LOAD      ACCESS:    2453741  HIT:    1974201  MISS:     479540  HIT %:    80.4568  MISS %:    19.5432   MPKI: 2.3977
L2C DATA LOAD MPKI: 1.23961
L2C INSTRUCTION LOAD MPKI: 1.15809
L2C RFO       ACCESS:     770397  HIT:     126558  MISS:     643839  HIT %:    16.4276  MISS %:    83.5724   MPKI: 3.21919
L2C PREFETCH  ACCESS:     131954  HIT:      51171  MISS:      80783  HIT %:    38.7794  MISS %:    61.2206   MPKI: 0.403915
AGUS PREFETCH L1 MISS: 0
L2C DATA PREFETCH MPKI: 0.403915
L2C INSTRUCTION PREFETCH MPKI: 0
L2C WRITEBACK ACCESS:     877702  HIT:     850534  MISS:      27168  HIT %:    96.9046  MISS %:    3.09536   MPKI: 0.13584
L2C LOAD TRANSLATION ACCESS:      14363  HIT:       9049  MISS:       5314  HIT %:    63.0022  MISS %:    36.9978   MPKI: 0.02657
L2C TRANSLATION FROM L1D PREFETCHER ACCESS:     112294  HIT:     111247  MISS:       1047  HIT %:    99.0676  MISS %:   0.932374   MPKI: 0.005235
L2C PREFETCH  REQUESTED:          0  ISSUED:          0  USEFUL:       3879  USELESS:      77779
L2C USEFUL LOAD PREFETCHES:       3879 PREFETCH ISSUED TO LOWER LEVEL:      80783  ACCURACY: 4.80175
L2C TIMELY PREFETCHES:       3879 LATE PREFETCHES: 0 DROPPED PREFETCHES: 0
L2C PREFETCHES SAME FILL-ORIGIN LEVEL: 0 DIFFERENT FILL-ORIGIN LEVEL: 0
L2C AVERAGE MISS LATENCY: 122.955 cycles
L2C RQ	ACCESS:    3350811	FORWARD:          0	MERGED:          0	TO_CACHE:    3350794
L2C WQ	ACCESS:     877702	FORWARD:         18	MERGED:          0	TO_CACHE:     877702
L2C PQ	ACCESS:     131955	FORWARD:          0	MERGED:          0	TO_CACHE:     131954

L2C Instructions Evicting Data 148258
L2C Translations Evicting Data 4568
L2C Data Evicting Data 827808
L2C Instructions Evicting Instructions 81669
L2C Translations Evicting Instructions 1713
L2C Data Evicting Instructions 140312
L2C Instructions Evicting Translations 1691
L2C Translations Evicting Translations 80
L2C Data Evicting Translations 4424
L2C Dense regions hint from L2: 0
PSCL5 TOTAL     ACCESS:     105501  HIT:     105501  MISS:          0  HIT %:        100  MISS %:          0   MPKI: 0
PSCL5 LOAD TRANSLATION ACCESS:      13967  HIT:      13967  MISS:          0  HIT %:        100  MISS %:          0   MPKI: 0
PSCL5 TRANSLATION FROM L1D PREFETCHER ACCESS:      91534  HIT:      91534  MISS:          0  HIT %:        100  MISS %:          0   MPKI: 0
PSCL5 PREFETCH  REQUESTED:          0  ISSUED:          0  USEFUL:          0  USELESS:          0
PSCL5 USEFUL LOAD PREFETCHES:          0 PREFETCH ISSUED TO LOWER LEVEL:          0  ACCURACY: -nan
PSCL5 TIMELY PREFETCHES:          0 LATE PREFETCHES: 0 DROPPED PREFETCHES: 0
PSCL5 PREFETCHES SAME FILL-ORIGIN LEVEL: 0 DIFFERENT FILL-ORIGIN LEVEL: 0

PSCL4 TOTAL     ACCESS:      91336  HIT:      91336  MISS:          0  HIT %:        100  MISS %:          0   MPKI: 0
PSCL4 LOAD TRANSLATION ACCESS:      13967  HIT:      13967  MISS:          0  HIT %:        100  MISS %:          0   MPKI: 0
PSCL4 TRANSLATION FROM L1D PREFETCHER ACCESS:      77369  HIT:      77369  MISS:          0  HIT %:        100  MISS %:          0   MPKI: 0
PSCL4 PREFETCH  REQUESTED:          0  ISSUED:          0  USEFUL:          0  USELESS:          0
PSCL4 USEFUL LOAD PREFETCHES:          0 PREFETCH ISSUED TO LOWER LEVEL:          0  ACCURACY: -nan
PSCL4 TIMELY PREFETCHES:          0 LATE PREFETCHES: 0 DROPPED PREFETCHES: 0
PSCL4 PREFETCHES SAME FILL-ORIGIN LEVEL: 0 DIFFERENT FILL-ORIGIN LEVEL: 0

PSCL3 TOTAL     ACCESS:      73104  HIT:      73089  MISS:         15  HIT %:    99.9795  MISS %:  0.0205187   MPKI: 7.5e-05
PSCL3 LOAD TRANSLATION ACCESS:      13842  HIT:      13827  MISS:         15  HIT %:    99.8916  MISS %:   0.108366   MPKI: 7.5e-05
PSCL3 TRANSLATION FROM L1D PREFETCHER ACCESS:      59262  HIT:      59262  MISS:          0  HIT %:        100  MISS %:          0   MPKI: 0
PSCL3 PREFETCH  REQUESTED:          0  ISSUED:          0  USEFUL:          0  USELESS:          0
PSCL3 USEFUL LOAD PREFETCHES:          0 PREFETCH ISSUED TO LOWER LEVEL:          0  ACCURACY: -nan
PSCL3 TIMELY PREFETCHES:          0 LATE PREFETCHES: 0 DROPPED PREFETCHES: 0
PSCL3 PREFETCHES SAME FILL-ORIGIN LEVEL: 0 DIFFERENT FILL-ORIGIN LEVEL: 0

PSCL2 TOTAL     ACCESS:      58189  HIT:      57780  MISS:        409  HIT %:    99.2971  MISS %:   0.702882   MPKI: 0.002045
PSCL2 LOAD TRANSLATION ACCESS:      13982  HIT:      13573  MISS:        409  HIT %:    97.0748  MISS %:    2.92519   MPKI: 0.002045
PSCL2 TRANSLATION FROM L1D PREFETCHER ACCESS:      44207  HIT:      44207  MISS:          0  HIT %:        100  MISS %:          0   MPKI: 0
PSCL2 PREFETCH  REQUESTED:          0  ISSUED:          0  USEFUL:          0  USELESS:          0
PSCL2 USEFUL LOAD PREFETCHES:          0 PREFETCH ISSUED TO LOWER LEVEL:          0  ACCURACY: -nan
PSCL2 TIMELY PREFETCHES:          0 LATE PREFETCHES: 0 DROPPED PREFETCHES: 0
PSCL2 PREFETCHES SAME FILL-ORIGIN LEVEL: 0 DIFFERENT FILL-ORIGIN LEVEL: 0

LLC TOTAL     ACCESS:    1907281  HIT:    1160589  MISS:     746692  HIT %:    60.8504  MISS %:    39.1496   MPKI: 3.73346
LLC LOAD      ACCESS:     479539  HIT:     297497  MISS:     182042  HIT %:    62.0381  MISS %:    37.9619   MPKI: 0.91021
LLC RFO       ACCESS:     643839  HIT:     150634  MISS:     493205  HIT %:    23.3962  MISS %:    76.6038   MPKI: 2.46602
LLC PREFETCH  ACCESS:      80783  HIT:      24318  MISS:      56465  HIT %:    30.1029  MISS %:    69.8971   MPKI: 0.282325
AGUS PREFETCH L1 MISS: 0
LLC WRITEBACK ACCESS:     696759  HIT:     685102  MISS:      11657  HIT %:     98.327  MISS %:    1.67303   MPKI: 0.058285
LLC LOAD TRANSLATION ACCESS:       5314  HIT:       2372  MISS:       2942  HIT %:    44.6368  MISS %:    55.3632   MPKI: 0.01471
LLC TRANSLATION FROM L1D PREFETCHER ACCESS:       1047  HIT:        666  MISS:        381  HIT %:    63.6103  MISS %:    36.3897   MPKI: 0.001905
LLC PREFETCH  REQUESTED:          0  ISSUED:          0  USEFUL:       2016  USELESS:      54205
LLC USEFUL LOAD PREFETCHES:       2016 PREFETCH ISSUED TO LOWER LEVEL:      56465  ACCURACY: 3.57035
LLC TIMELY PREFETCHES:       2016 LATE PREFETCHES: 0 DROPPED PREFETCHES: 0
LLC PREFETCHES SAME FILL-ORIGIN LEVEL: 0 DIFFERENT FILL-ORIGIN LEVEL: 0
LLC AVERAGE MISS LATENCY: 155.13 cycles
LLC RQ	ACCESS:    1129739	FORWARD:          0	MERGED:          0	TO_CACHE:    1129738
LLC WQ	ACCESS:     696759	FORWARD:          1	MERGED:          0	TO_CACHE:     696759
LLC PQ	ACCESS:      80783	FORWARD:          0	MERGED:          0	TO_CACHE:      80783

LLC Dense regions hint to LLC: 0

RAW hits: 4063162
Loads Generated: 46900669
Loads sent to L1D: 42837507
Stores Generated: 28298347
Stores sent to L1D: 28298364
Major fault: 0 Minor fault: 5106
Allocated PAGES: 5106
Completed 

DRAM Statistics
 CHANNEL 0
 RQ ROW_BUFFER_HIT:     264689  ROW_BUFFER_MISS:     470345
 DBUS_CONGESTED:        552
 WQ ROW_BUFFER_HIT:     124000  ROW_BUFFER_MISS:     390958  FULL:          0

 AVG_CONGESTED_CYCLE: 3
 All warmup complete: 2
Channel 0 Bank busy for read cycles: 0
Channel 0 Bank busy for write cycles: 0
Channel 0
Rank 0
0banks busy for read cycles: 248423733
0banks busy for write cycles: 116870
1banks busy for read cycles: 29736736
1banks busy for write cycles: 16042404
2banks busy for read cycles: 5817733
2banks busy for write cycles: 5718755
3banks busy for read cycles: 1979121
3banks busy for write cycles: 2415511
4banks busy for read cycles: 1037200
4banks busy for write cycles: 1141217
5banks busy for read cycles: 892168
5banks busy for write cycles: 685051
6banks busy for read cycles: 1128557
6banks busy for write cycles: 642606
7banks busy for read cycles: 929389
7banks busy for write cycles: 943668
8banks busy for read cycles: 1891055
8banks busy for write cycles: 4555708

CPU 0 Branch Prediction Accuracy: 98.7615% MPKI: 2.30067 Average ROB Occupancy at Mispredict: 18.1242
Branch types
NOT_BRANCH: 162847965 81.424%
BRANCH_DIRECT_JUMP: 1668733 0.834366%
BRANCH_INDIRECT: 12964857 6.48243%
BRANCH_CONDITIONAL: 14916687 7.45834%
BRANCH_DIRECT_CALL: 3293738 1.64687%
BRANCH_INDIRECT_CALL: 505068 0.252534%
BRANCH_RETURN: 3802664 1.90133%
BRANCH_OTHER: 0 0%

DRAM PAGES: 1048576
Allocated PAGES: 5106
