
*** ChampSim Multicore Out-of-Order Simulator ***

Warmup Instructions: 50000000
Simulation Instructions: 200000000
Number of CPUs: 1
LLC sets: 2048
LLC ways: 16
Off-chip DRAM Size: 4096 MB Channels: 1 Width: 64-bit Data Rate: 6400 MT/s
CPU 0 runs traces/spec2k17/server_014.champsimtrace.xz
.xz
BTB has LRU replacement policy
ITLB has LRU replacement policy
DTLB has LRU replacement policy
STLB has LRU replacement policy
L1I has LRU replacement policy
L1D has LRU replacement policy
Initialize SRRIP state for L2C
Initialize DRRIP state for LLC
Heartbeat CPU 0 instructions: 10000001 cycles: 2691094 heartbeat IPC: 3.71596 cumulative IPC: 3.71596 (Simulation time: 0 hr 0 min 20 sec) 
Heartbeat CPU 0 instructions: 20000000 cycles: 5436672 heartbeat IPC: 3.64222 cumulative IPC: 3.67872 (Simulation time: 0 hr 0 min 40 sec) 
Heartbeat CPU 0 instructions: 30000001 cycles: 8165200 heartbeat IPC: 3.66498 cumulative IPC: 3.67413 (Simulation time: 0 hr 0 min 59 sec) 
Heartbeat CPU 0 instructions: 40000001 cycles: 10892108 heartbeat IPC: 3.66716 cumulative IPC: 3.67238 (Simulation time: 0 hr 1 min 18 sec) 
Heartbeat CPU 0 instructions: 50000002 cycles: 13620399 heartbeat IPC: 3.6653 cumulative IPC: 3.67096 (Simulation time: 0 hr 1 min 38 sec) 

Warmup complete CPU 0 instructions: 50000002 cycles: 13620399 (Simulation time: 0 hr 1 min 38 sec) 

Heartbeat CPU 0 instructions: 60000003 cycles: 29029064 heartbeat IPC: 0.648986 cumulative IPC: 0.648986 (Simulation time: 0 hr 2 min 12 sec) 
Heartbeat CPU 0 instructions: 70000002 cycles: 44365253 heartbeat IPC: 0.652052 cumulative IPC: 0.650515 (Simulation time: 0 hr 2 min 45 sec) 
*** Reached end of trace for Core: 0 Repeating trace: traces/spec2k17/server_014.champsimtrace.xz
Heartbeat CPU 0 instructions: 80000001 cycles: 60305379 heartbeat IPC: 0.627348 cumulative IPC: 0.642605 (Simulation time: 0 hr 3 min 19 sec) 
Heartbeat CPU 0 instructions: 90000003 cycles: 77616749 heartbeat IPC: 0.577655 cumulative IPC: 0.625036 (Simulation time: 0 hr 3 min 54 sec) 
Heartbeat CPU 0 instructions: 100000000 cycles: 93020824 heartbeat IPC: 0.649179 cumulative IPC: 0.62972 (Simulation time: 0 hr 4 min 27 sec) 
Heartbeat CPU 0 instructions: 110000000 cycles: 108639036 heartbeat IPC: 0.640278 cumulative IPC: 0.631455 (Simulation time: 0 hr 5 min 0 sec) 
Heartbeat CPU 0 instructions: 120000000 cycles: 123997162 heartbeat IPC: 0.651121 cumulative IPC: 0.634191 (Simulation time: 0 hr 5 min 34 sec) 
Heartbeat CPU 0 instructions: 130000002 cycles: 139356562 heartbeat IPC: 0.651067 cumulative IPC: 0.636253 (Simulation time: 0 hr 6 min 7 sec) 
Heartbeat CPU 0 instructions: 140000001 cycles: 154718107 heartbeat IPC: 0.650976 cumulative IPC: 0.637856 (Simulation time: 0 hr 6 min 40 sec) 
Heartbeat CPU 0 instructions: 150000000 cycles: 170061532 heartbeat IPC: 0.651745 cumulative IPC: 0.639218 (Simulation time: 0 hr 7 min 14 sec) 
*** Reached end of trace for Core: 0 Repeating trace: traces/spec2k17/server_014.champsimtrace.xz
Heartbeat CPU 0 instructions: 160000000 cycles: 186046659 heartbeat IPC: 0.625582 cumulative IPC: 0.637954 (Simulation time: 0 hr 7 min 47 sec) 
Heartbeat CPU 0 instructions: 170000002 cycles: 203195849 heartbeat IPC: 0.583118 cumulative IPC: 0.632993 (Simulation time: 0 hr 8 min 22 sec) 
Heartbeat CPU 0 instructions: 180000000 cycles: 218583307 heartbeat IPC: 0.64988 cumulative IPC: 0.634261 (Simulation time: 0 hr 8 min 55 sec) 
Heartbeat CPU 0 instructions: 190000001 cycles: 234189103 heartbeat IPC: 0.640788 cumulative IPC: 0.634723 (Simulation time: 0 hr 9 min 28 sec) 
Heartbeat CPU 0 instructions: 200000000 cycles: 249537164 heartbeat IPC: 0.651548 cumulative IPC: 0.635817 (Simulation time: 0 hr 10 min 1 sec) 
Heartbeat CPU 0 instructions: 210000000 cycles: 264889567 heartbeat IPC: 0.651364 cumulative IPC: 0.636767 (Simulation time: 0 hr 10 min 34 sec) 
Heartbeat CPU 0 instructions: 220000000 cycles: 280245755 heartbeat IPC: 0.651203 cumulative IPC: 0.637599 (Simulation time: 0 hr 11 min 8 sec) 
Heartbeat CPU 0 instructions: 230000003 cycles: 295582781 heartbeat IPC: 0.652017 cumulative IPC: 0.638383 (Simulation time: 0 hr 11 min 41 sec) 
*** Reached end of trace for Core: 0 Repeating trace: traces/spec2k17/server_014.champsimtrace.xz
Heartbeat CPU 0 instructions: 240000000 cycles: 311646207 heartbeat IPC: 0.622532 cumulative IPC: 0.637529 (Simulation time: 0 hr 12 min 15 sec) 
Heartbeat CPU 0 instructions: 250000001 cycles: 328577793 heartbeat IPC: 0.590612 cumulative IPC: 0.635007 (Simulation time: 0 hr 12 min 50 sec) 
Finished CPU 0 instructions: 200000002 cycles: 314957395 cumulative IPC: 0.635006 (Simulation time: 0 hr 12 min 50 sec) 

ChampSim completed all CPUs

Region of Interest Statistics

CPU 0 cumulative IPC: 0.635006 instructions: 200000002 cycles: 314957395
ITLB TOTAL     ACCESS:   33939003  HIT:   32348704  MISS:    1590299  HIT %:    95.3142  MISS %:    4.68576   MPKI: 7.95149
ITLB LOAD TRANSLATION ACCESS:   33939003  HIT:   32348704  MISS:    1590299  HIT %:    95.3142  MISS %:    4.68576   MPKI: 7.95149
ITLB PREFETCH  REQUESTED:          0  ISSUED:          0  USEFUL:          0  USELESS:          0
ITLB USEFUL LOAD PREFETCHES:          0 PREFETCH ISSUED TO LOWER LEVEL:          0  ACCURACY: -nan
ITLB TIMELY PREFETCHES:          0 LATE PREFETCHES: 0 DROPPED PREFETCHES: 0
ITLB PREFETCHES SAME FILL-ORIGIN LEVEL: 0 DIFFERENT FILL-ORIGIN LEVEL: 0
ITLB AVERAGE MISS LATENCY: 9.07369 cycles
ITLB RQ	ACCESS:   39388716	FORWARD:          0	MERGED:    4929232	TO_CACHE:   34459484

DTLB TOTAL     ACCESS:   39461751  HIT:   38783776  MISS:     677975  HIT %:    98.2819  MISS %:    1.71806   MPKI: 3.38987
DTLB LOAD TRANSLATION ACCESS:   39461751  HIT:   38783776  MISS:     677975  HIT %:    98.2819  MISS %:    1.71806   MPKI: 3.38987
DTLB PREFETCH  REQUESTED:          0  ISSUED:          0  USEFUL:          0  USELESS:          0
DTLB USEFUL LOAD PREFETCHES:          0 PREFETCH ISSUED TO LOWER LEVEL:          0  ACCURACY: -nan
DTLB TIMELY PREFETCHES:          0 LATE PREFETCHES: 0 DROPPED PREFETCHES: 0
DTLB PREFETCHES SAME FILL-ORIGIN LEVEL: 0 DIFFERENT FILL-ORIGIN LEVEL: 0
DTLB AVERAGE MISS LATENCY: 7.55076 cycles
DTLB RQ	ACCESS:   59072611	FORWARD:          0	MERGED:   19570258	TO_CACHE:   39502353

STLB TOTAL     ACCESS:   19384802  HIT:   19381317  MISS:       3485  HIT %:     99.982  MISS %:   0.017978   MPKI: 0.017425
STLB LOAD TRANSLATION ACCESS:    2268274  HIT:    2264886  MISS:       3388  HIT %:    99.8506  MISS %:   0.149365   MPKI: 0.01694
STLB TRANSLATION FROM L1D PREFETCHER ACCESS:   17116528  HIT:   17116431  MISS:         97  HIT %:    99.9994  MISS %: 0.000566704   MPKI: 0.000485
STLB PREFETCH  REQUESTED:          0  ISSUED:          0  USEFUL:         99  USELESS:          0
STLB USEFUL LOAD PREFETCHES:         99 PREFETCH ISSUED TO LOWER LEVEL:          0  ACCURACY: inf
STLB TIMELY PREFETCHES:         99 LATE PREFETCHES: 26 DROPPED PREFETCHES: 385794
STLB PREFETCHES SAME FILL-ORIGIN LEVEL: 0 DIFFERENT FILL-ORIGIN LEVEL: 0
STLB AVERAGE MISS LATENCY: 111.816 cycles
STLB RQ	ACCESS:   24692190	FORWARD:          0	MERGED:    4906630	TO_CACHE:   19785560

STLB Hit, L1D data hit: 0
STLB Hit, L2C data hit: 0
STLB Hit, LLC data hit: 0
STLB Hit, LLC data miss: 0
STLB STLB hints to L2: 0
L1D TOTAL     ACCESS:   80856326  HIT:   80668872  MISS:     187454  HIT %:    99.7682  MISS %:   0.231836   MPKI: 0.93727
L1D LOAD      ACCESS:   26964528  HIT:   26882341  MISS:      82187  HIT %:    99.6952  MISS %:   0.304797   MPKI: 0.410935
L1D RFO       ACCESS:   31942866  HIT:   31846365  MISS:      96501  HIT %:    99.6979  MISS %:   0.302105   MPKI: 0.482505
L1D PREFETCH  ACCESS:   21948932  HIT:   21940166  MISS:       8766  HIT %:    99.9601  MISS %:  0.0399382   MPKI: 0.04383
AGUS PREFETCH L1 MISS: 0
L1D PREFETCH  REQUESTED:   48022848  ISSUED:   48022052  USEFUL:       3708  USELESS:       5045
L1D USEFUL LOAD PREFETCHES:       3708 PREFETCH ISSUED TO LOWER LEVEL:      14918  ACCURACY: 24.8559
L1D TIMELY PREFETCHES:       3708 LATE PREFETCHES: 6144 DROPPED PREFETCHES: 433295
L1D PREFETCHES SAME FILL-ORIGIN LEVEL: 14918 DIFFERENT FILL-ORIGIN LEVEL: 0
L1D AVERAGE MISS LATENCY: 6.31896e+06 cycles
L1D RQ	ACCESS:   44734066	FORWARD:          0	MERGED:   17394105	TO_CACHE:   26971802
L1D WQ	ACCESS:   32528947	FORWARD:     561604	MERGED:     428138	TO_CACHE:   32100809
L1D PQ	ACCESS:   25598136	FORWARD:          0	MERGED:    2980775	TO_CACHE:   22423916

L1D UNIQUE REGIONS ACCESSED: 0
L1D REGIONS CONFLICTS: 0
L1D Cross Page Prefetch Requests: 17164129
L1D Same Page Prefetch Requests: 13809681
L1D ROI Sum of L1D PQ occupancy: 316120595
L1D PREFETCHES PUSHED FROM L2C: 0
L1I TOTAL     ACCESS:   38027879  HIT:   32325564  MISS:    5702315  HIT %:    85.0049  MISS %:    14.9951   MPKI: 28.5116
L1I LOAD      ACCESS:   38027879  HIT:   32325564  MISS:    5702315  HIT %:    85.0049  MISS %:    14.9951   MPKI: 28.5116
L1I PREFETCH  REQUESTED:          0  ISSUED:          0  USEFUL:          0  USELESS:          0
L1I USEFUL LOAD PREFETCHES:          0 PREFETCH ISSUED TO LOWER LEVEL:          0  ACCURACY: -nan
L1I TIMELY PREFETCHES:          0 LATE PREFETCHES: 0 DROPPED PREFETCHES: 0
L1I PREFETCHES SAME FILL-ORIGIN LEVEL: 0 DIFFERENT FILL-ORIGIN LEVEL: 0
L1I AVERAGE MISS LATENCY: 14.6092 cycles
L1I RQ	ACCESS:   60204423	FORWARD:          0	MERGED:   20815707	TO_CACHE:   39388716

BTB TOTAL     ACCESS:   28030751  HIT:   25492705  MISS:    2538046  HIT %:    90.9455  MISS %:    9.05451   MPKI: 12.6902
BTB BRANCH_DIRECT_JUMP	ACCESS:    1660185  HIT:    1656204  MISS:       3981
BTB BRANCH_INDIRECT	ACCESS:   12451124  HIT:   11582007  MISS:     869117
BTB BRANCH_CONDITIONAL	ACCESS:    4291215  HIT:    4285628  MISS:       5587
BTB BRANCH_DIRECT_CALL	ACCESS:    4358215  HIT:    4347520  MISS:      10695
BTB BRANCH_INDIRECT_CALL	ACCESS:     455923  HIT:     405462  MISS:      50461
BTB BRANCH_RETURN	ACCESS:    4814089  HIT:    3215884  MISS:    1598205
BTB BRANCH_OTHER ACCESS:          0  HIT:          0  MISS:          0

L2C TOTAL     ACCESS:    6449128  HIT:    6245768  MISS:     203360  HIT %:    96.8467  MISS %:    3.15329   MPKI: 1.0168
L2C LOAD      ACCESS:    5778357  HIT:    5684928  MISS:      93429  HIT %:    98.3831  MISS %:    1.61688   MPKI: 0.467145
L2C DATA LOAD MPKI: 0.30071
L2C INSTRUCTION LOAD MPKI: 0.166435
L2C RFO       ACCESS:      96493  HIT:       3248  MISS:      93245  HIT %:    3.36605  MISS %:     96.634   MPKI: 0.466225
L2C PREFETCH  ACCESS:      14918  HIT:       3984  MISS:      10934  HIT %:     26.706  MISS %:     73.294   MPKI: 0.05467
AGUS PREFETCH L1 MISS: 0
L2C DATA PREFETCH MPKI: 0.05467
L2C INSTRUCTION PREFETCH MPKI: 0
L2C WRITEBACK ACCESS:     112737  HIT:     109788  MISS:       2949  HIT %:    97.3842  MISS %:    2.61582   MPKI: 0.014745
L2C LOAD TRANSLATION ACCESS:       3804  HIT:       2056  MISS:       1748  HIT %:    54.0484  MISS %:    45.9516   MPKI: 0.00874
L2C TRANSLATION FROM L1D PREFETCHER ACCESS:     442819  HIT:     441764  MISS:       1055  HIT %:    99.7618  MISS %:   0.238246   MPKI: 0.005275
L2C PREFETCH  REQUESTED:          0  ISSUED:          0  USEFUL:       1012  USELESS:      10840
L2C USEFUL LOAD PREFETCHES:       1012 PREFETCH ISSUED TO LOWER LEVEL:      10934  ACCURACY: 9.25553
L2C TIMELY PREFETCHES:       1012 LATE PREFETCHES: 0 DROPPED PREFETCHES: 0
L2C PREFETCHES SAME FILL-ORIGIN LEVEL: 0 DIFFERENT FILL-ORIGIN LEVEL: 0
L2C AVERAGE MISS LATENCY: 193.576 cycles
L2C RQ	ACCESS:    6321474	FORWARD:          0	MERGED:          0	TO_CACHE:    6321473
L2C WQ	ACCESS:     112737	FORWARD:          1	MERGED:          0	TO_CACHE:     112737
L2C PQ	ACCESS:      14918	FORWARD:          0	MERGED:          0	TO_CACHE:      14918

L2C Instructions Evicting Data 27886
L2C Translations Evicting Data 2347
L2C Data Evicting Data 134657
L2C Instructions Evicting Instructions 4962
L2C Translations Evicting Instructions 399
L2C Data Evicting Instructions 27298
L2C Instructions Evicting Translations 439
L2C Translations Evicting Translations 57
L2C Data Evicting Translations 2366
L2C Dense regions hint from L2: 0
PSCL5 TOTAL     ACCESS:     305194  HIT:     305194  MISS:          0  HIT %:        100  MISS %:          0   MPKI: 0
PSCL5 LOAD TRANSLATION ACCESS:       3362  HIT:       3362  MISS:          0  HIT %:        100  MISS %:          0   MPKI: 0
PSCL5 TRANSLATION FROM L1D PREFETCHER ACCESS:     301832  HIT:     301832  MISS:          0  HIT %:        100  MISS %:          0   MPKI: 0
PSCL5 PREFETCH  REQUESTED:          0  ISSUED:          0  USEFUL:          0  USELESS:          0
PSCL5 USEFUL LOAD PREFETCHES:          0 PREFETCH ISSUED TO LOWER LEVEL:          0  ACCURACY: -nan
PSCL5 TIMELY PREFETCHES:          0 LATE PREFETCHES: 0 DROPPED PREFETCHES: 0
PSCL5 PREFETCHES SAME FILL-ORIGIN LEVEL: 0 DIFFERENT FILL-ORIGIN LEVEL: 0

PSCL4 TOTAL     ACCESS:     301738  HIT:     301723  MISS:         15  HIT %:     99.995  MISS %:  0.0049712   MPKI: 7.5e-05
PSCL4 LOAD TRANSLATION ACCESS:       1993  HIT:       1978  MISS:         15  HIT %:    99.2474  MISS %:   0.752634   MPKI: 7.5e-05
PSCL4 TRANSLATION FROM L1D PREFETCHER ACCESS:     299745  HIT:     299745  MISS:          0  HIT %:        100  MISS %:          0   MPKI: 0
PSCL4 PREFETCH  REQUESTED:          0  ISSUED:          0  USEFUL:          0  USELESS:          0
PSCL4 USEFUL LOAD PREFETCHES:          0 PREFETCH ISSUED TO LOWER LEVEL:          0  ACCURACY: -nan
PSCL4 TIMELY PREFETCHES:          0 LATE PREFETCHES: 0 DROPPED PREFETCHES: 0
PSCL4 PREFETCHES SAME FILL-ORIGIN LEVEL: 0 DIFFERENT FILL-ORIGIN LEVEL: 0

PSCL3 TOTAL     ACCESS:     303705  HIT:     303690  MISS:         15  HIT %:    99.9951  MISS %:   0.004939   MPKI: 7.5e-05
PSCL3 LOAD TRANSLATION ACCESS:       3023  HIT:       3008  MISS:         15  HIT %:    99.5038  MISS %:   0.496196   MPKI: 7.5e-05
PSCL3 TRANSLATION FROM L1D PREFETCHER ACCESS:     300682  HIT:     300682  MISS:          0  HIT %:        100  MISS %:          0   MPKI: 0
PSCL3 PREFETCH  REQUESTED:          0  ISSUED:          0  USEFUL:          0  USELESS:          0
PSCL3 USEFUL LOAD PREFETCHES:          0 PREFETCH ISSUED TO LOWER LEVEL:          0  ACCURACY: -nan
PSCL3 TIMELY PREFETCHES:          0 LATE PREFETCHES: 0 DROPPED PREFETCHES: 0
PSCL3 PREFETCHES SAME FILL-ORIGIN LEVEL: 0 DIFFERENT FILL-ORIGIN LEVEL: 0

PSCL2 TOTAL     ACCESS:     150159  HIT:     149736  MISS:        423  HIT %:    99.7183  MISS %:   0.281701   MPKI: 0.002115
PSCL2 LOAD TRANSLATION ACCESS:       3373  HIT:       2950  MISS:        423  HIT %:    87.4592  MISS %:    12.5408   MPKI: 0.002115
PSCL2 TRANSLATION FROM L1D PREFETCHER ACCESS:     146786  HIT:     146786  MISS:          0  HIT %:        100  MISS %:          0   MPKI: 0
PSCL2 PREFETCH  REQUESTED:          0  ISSUED:          0  USEFUL:          0  USELESS:          0
PSCL2 USEFUL LOAD PREFETCHES:          0 PREFETCH ISSUED TO LOWER LEVEL:          0  ACCURACY: -nan
PSCL2 TIMELY PREFETCHES:          0 LATE PREFETCHES: 0 DROPPED PREFETCHES: 0
PSCL2 PREFETCHES SAME FILL-ORIGIN LEVEL: 0 DIFFERENT FILL-ORIGIN LEVEL: 0

LLC TOTAL     ACCESS:     302590  HIT:     168175  MISS:     134415  HIT %:    55.5785  MISS %:    44.4215   MPKI: 0.672075
LLC LOAD      ACCESS:      93429  HIT:      36475  MISS:      56954  HIT %:    39.0403  MISS %:    60.9597   MPKI: 0.28477
LLC RFO       ACCESS:      93245  HIT:      30948  MISS:      62297  HIT %:      33.19  MISS %:      66.81   MPKI: 0.311485
LLC PREFETCH  ACCESS:      10934  HIT:       3108  MISS:       7826  HIT %:    28.4251  MISS %:    71.5749   MPKI: 0.03913
AGUS PREFETCH L1 MISS: 0
LLC WRITEBACK ACCESS:     102179  HIT:      96447  MISS:       5732  HIT %:    94.3902  MISS %:    5.60976   MPKI: 0.02866
LLC LOAD TRANSLATION ACCESS:       1748  HIT:        647  MISS:       1101  HIT %:    37.0137  MISS %:    62.9863   MPKI: 0.005505
LLC TRANSLATION FROM L1D PREFETCHER ACCESS:       1055  HIT:        550  MISS:        505  HIT %:    52.1327  MISS %:    47.8673   MPKI: 0.002525
LLC PREFETCH  REQUESTED:          0  ISSUED:          0  USEFUL:        695  USELESS:       8778
LLC USEFUL LOAD PREFETCHES:        695 PREFETCH ISSUED TO LOWER LEVEL:       7826  ACCURACY: 8.88065
LLC TIMELY PREFETCHES:        695 LATE PREFETCHES: 0 DROPPED PREFETCHES: 0
LLC PREFETCHES SAME FILL-ORIGIN LEVEL: 0 DIFFERENT FILL-ORIGIN LEVEL: 0
LLC AVERAGE MISS LATENCY: 248.109 cycles
LLC RQ	ACCESS:     189477	FORWARD:          0	MERGED:          0	TO_CACHE:     189477
LLC WQ	ACCESS:     102179	FORWARD:          0	MERGED:          0	TO_CACHE:     102179
LLC PQ	ACCESS:      10934	FORWARD:          0	MERGED:          0	TO_CACHE:      10934

LLC Dense regions hint to LLC: 0

RAW hits: 3281329
Loads Generated: 48015396
Loads sent to L1D: 44734066
Stores Generated: 32528949
Stores sent to L1D: 32528947
Major fault: 0 Minor fault: 2022
Allocated PAGES: 2022
Completed 

DRAM Statistics
 CHANNEL 0
 RQ ROW_BUFFER_HIT:      56067  ROW_BUFFER_MISS:      72615
 DBUS_CONGESTED:         26
 WQ ROW_BUFFER_HIT:      17219  ROW_BUFFER_MISS:      50638  FULL:          0

 AVG_CONGESTED_CYCLE: 5
 All warmup complete: 2
Channel 0 Bank busy for read cycles: 0
Channel 0 Bank busy for write cycles: 0
Channel 0
Rank 0
0banks busy for read cycles: 305747104
0banks busy for write cycles: 8059
1banks busy for read cycles: 3271302
1banks busy for write cycles: 1347175
2banks busy for read cycles: 799789
2banks busy for write cycles: 703736
3banks busy for read cycles: 219645
3banks busy for write cycles: 331108
4banks busy for read cycles: 108394
4banks busy for write cycles: 158881
5banks busy for read cycles: 123522
5banks busy for write cycles: 80139
6banks busy for read cycles: 179421
6banks busy for write cycles: 69353
7banks busy for read cycles: 244223
7banks busy for write cycles: 151398
8banks busy for read cycles: 587032
8banks busy for write cycles: 827115

CPU 0 Branch Prediction Accuracy: 99.8714% MPKI: 0.20299 Average ROB Occupancy at Mispredict: 16.3001
Branch types
NOT_BRANCH: 168420573 84.2103%
BRANCH_DIRECT_JUMP: 1660185 0.830092%
BRANCH_INDIRECT: 12451124 6.22556%
BRANCH_CONDITIONAL: 7839905 3.91995%
BRANCH_DIRECT_CALL: 4358215 2.17911%
BRANCH_INDIRECT_CALL: 455923 0.227961%
BRANCH_RETURN: 4814089 2.40704%
BRANCH_OTHER: 0 0%

DRAM PAGES: 1048576
Allocated PAGES: 2022
