
*** ChampSim Multicore Out-of-Order Simulator ***

Warmup Instructions: 50000000
Simulation Instructions: 200000000
Number of CPUs: 1
LLC sets: 2048
LLC ways: 16
Off-chip DRAM Size: 4096 MB Channels: 1 Width: 64-bit Data Rate: 6400 MT/s
CPU 0 runs traces/spec2k17/server_011.champsimtrace.xz
.xz
BTB has LRU replacement policy
ITLB has LRU replacement policy
DTLB has LRU replacement policy
STLB has LRU replacement policy
L1I has LRU replacement policy
L1D has LRU replacement policy
Initialize SRRIP state for L2C
Initialize DRRIP state for LLC
Heartbeat CPU 0 instructions: 10000002 cycles: 2780619 heartbeat IPC: 3.59632 cumulative IPC: 3.59632 (Simulation time: 0 hr 0 min 26 sec) 
Heartbeat CPU 0 instructions: 20000000 cycles: 5557018 heartbeat IPC: 3.60179 cumulative IPC: 3.59905 (Simulation time: 0 hr 0 min 51 sec) 
Heartbeat CPU 0 instructions: 30000000 cycles: 8360331 heartbeat IPC: 3.56721 cumulative IPC: 3.58837 (Simulation time: 0 hr 1 min 17 sec) 
Heartbeat CPU 0 instructions: 40000001 cycles: 11138402 heartbeat IPC: 3.59962 cumulative IPC: 3.59118 (Simulation time: 0 hr 1 min 43 sec) 
Heartbeat CPU 0 instructions: 50000000 cycles: 13919084 heartbeat IPC: 3.59624 cumulative IPC: 3.59219 (Simulation time: 0 hr 2 min 8 sec) 

Warmup complete CPU 0 instructions: 50000004 cycles: 13919085 (Simulation time: 0 hr 2 min 8 sec) 

Heartbeat CPU 0 instructions: 60000001 cycles: 38074298 heartbeat IPC: 0.413989 cumulative IPC: 0.413989 (Simulation time: 0 hr 2 min 46 sec) 
Heartbeat CPU 0 instructions: 70000000 cycles: 62104927 heartbeat IPC: 0.416136 cumulative IPC: 0.41506 (Simulation time: 0 hr 3 min 25 sec) 
Heartbeat CPU 0 instructions: 80000001 cycles: 87899962 heartbeat IPC: 0.387672 cumulative IPC: 0.40551 (Simulation time: 0 hr 4 min 2 sec) 
Heartbeat CPU 0 instructions: 90000003 cycles: 113667804 heartbeat IPC: 0.388081 cumulative IPC: 0.401008 (Simulation time: 0 hr 4 min 41 sec) 
Heartbeat CPU 0 instructions: 100000003 cycles: 136855878 heartbeat IPC: 0.431256 cumulative IPC: 0.406713 (Simulation time: 0 hr 5 min 20 sec) 
*** Reached end of trace for Core: 0 Repeating trace: traces/spec2k17/server_011.champsimtrace.xz
Heartbeat CPU 0 instructions: 110000000 cycles: 160591957 heartbeat IPC: 0.421299 cumulative IPC: 0.409074 (Simulation time: 0 hr 5 min 58 sec) 
Heartbeat CPU 0 instructions: 120000003 cycles: 184865739 heartbeat IPC: 0.411967 cumulative IPC: 0.409484 (Simulation time: 0 hr 6 min 35 sec) 
Heartbeat CPU 0 instructions: 130000000 cycles: 209195433 heartbeat IPC: 0.41102 cumulative IPC: 0.409676 (Simulation time: 0 hr 7 min 12 sec) 
Heartbeat CPU 0 instructions: 140000002 cycles: 235812006 heartbeat IPC: 0.375706 cumulative IPC: 0.405601 (Simulation time: 0 hr 7 min 50 sec) 
Heartbeat CPU 0 instructions: 150000000 cycles: 260048057 heartbeat IPC: 0.412608 cumulative IPC: 0.406291 (Simulation time: 0 hr 8 min 27 sec) 
Heartbeat CPU 0 instructions: 160000002 cycles: 283924306 heartbeat IPC: 0.418826 cumulative IPC: 0.4074 (Simulation time: 0 hr 9 min 4 sec) 
Heartbeat CPU 0 instructions: 170000000 cycles: 307870188 heartbeat IPC: 0.417608 cumulative IPC: 0.408231 (Simulation time: 0 hr 9 min 42 sec) 
Heartbeat CPU 0 instructions: 180000002 cycles: 334673988 heartbeat IPC: 0.373082 cumulative IPC: 0.405294 (Simulation time: 0 hr 10 min 19 sec) 
Heartbeat CPU 0 instructions: 190000001 cycles: 359307749 heartbeat IPC: 0.405947 cumulative IPC: 0.40534 (Simulation time: 0 hr 10 min 56 sec) 
Heartbeat CPU 0 instructions: 200000002 cycles: 382558897 heartbeat IPC: 0.430086 cumulative IPC: 0.406901 (Simulation time: 0 hr 11 min 32 sec) 
*** Reached end of trace for Core: 0 Repeating trace: traces/spec2k17/server_011.champsimtrace.xz
Heartbeat CPU 0 instructions: 210000003 cycles: 406145540 heartbeat IPC: 0.423969 cumulative IPC: 0.407928 (Simulation time: 0 hr 12 min 9 sec) 
Heartbeat CPU 0 instructions: 220000000 cycles: 430469968 heartbeat IPC: 0.411109 cumulative IPC: 0.408113 (Simulation time: 0 hr 12 min 46 sec) 
Heartbeat CPU 0 instructions: 230000002 cycles: 454321996 heartbeat IPC: 0.419252 cumulative IPC: 0.408717 (Simulation time: 0 hr 13 min 24 sec) 
Heartbeat CPU 0 instructions: 240000001 cycles: 481278184 heartbeat IPC: 0.370972 cumulative IPC: 0.40654 (Simulation time: 0 hr 14 min 2 sec) 
Heartbeat CPU 0 instructions: 250000000 cycles: 505018473 heartbeat IPC: 0.421225 cumulative IPC: 0.40725 (Simulation time: 0 hr 14 min 40 sec) 
Finished CPU 0 instructions: 200000000 cycles: 491099391 cumulative IPC: 0.40725 (Simulation time: 0 hr 14 min 40 sec) 

ChampSim completed all CPUs

Region of Interest Statistics

CPU 0 cumulative IPC: 0.40725 instructions: 200000000 cycles: 491099391
ITLB TOTAL     ACCESS:   32108246  HIT:   31346967  MISS:     761279  HIT %:     97.629  MISS %:    2.37098   MPKI: 3.8064
ITLB LOAD TRANSLATION ACCESS:   32108246  HIT:   31346967  MISS:     761279  HIT %:     97.629  MISS %:    2.37098   MPKI: 3.8064
ITLB PREFETCH  REQUESTED:          0  ISSUED:          0  USEFUL:          0  USELESS:          0
ITLB USEFUL LOAD PREFETCHES:          0 PREFETCH ISSUED TO LOWER LEVEL:          0  ACCURACY: -nan
ITLB TIMELY PREFETCHES:          0 LATE PREFETCHES: 0 DROPPED PREFETCHES: 0
ITLB PREFETCHES SAME FILL-ORIGIN LEVEL: 0 DIFFERENT FILL-ORIGIN LEVEL: 0
ITLB AVERAGE MISS LATENCY: 15.7386 cycles
ITLB RQ	ACCESS:   38679935	FORWARD:          0	MERGED:    6386546	TO_CACHE:   32293389

DTLB TOTAL     ACCESS:   38366210  HIT:   35991207  MISS:    2375003  HIT %:    93.8096  MISS %:    6.19035   MPKI: 11.875
DTLB LOAD TRANSLATION ACCESS:   38366210  HIT:   35991207  MISS:    2375003  HIT %:    93.8096  MISS %:    6.19035   MPKI: 11.875
DTLB PREFETCH  REQUESTED:          0  ISSUED:          0  USEFUL:          0  USELESS:          0
DTLB USEFUL LOAD PREFETCHES:          0 PREFETCH ISSUED TO LOWER LEVEL:          0  ACCURACY: -nan
DTLB TIMELY PREFETCHES:          0 LATE PREFETCHES: 0 DROPPED PREFETCHES: 0
DTLB PREFETCHES SAME FILL-ORIGIN LEVEL: 0 DIFFERENT FILL-ORIGIN LEVEL: 0
DTLB AVERAGE MISS LATENCY: 13.7009 cycles
DTLB RQ	ACCESS:   48880539	FORWARD:          0	MERGED:   10378195	TO_CACHE:   38502344

STLB TOTAL     ACCESS:   10365753  HIT:    9932528  MISS:     433225  HIT %:    95.8206  MISS %:    4.17939   MPKI: 2.16613
STLB LOAD TRANSLATION ACCESS:    3136282  HIT:    2713872  MISS:     422410  HIT %:    86.5315  MISS %:    13.4685   MPKI: 2.11205
STLB TRANSLATION FROM L1D PREFETCHER ACCESS:    7229471  HIT:    7218656  MISS:      10815  HIT %:    99.8504  MISS %:   0.149596   MPKI: 0.054075
STLB PREFETCH  REQUESTED:          0  ISSUED:          0  USEFUL:       8945  USELESS:       1868
STLB USEFUL LOAD PREFETCHES:       8945 PREFETCH ISSUED TO LOWER LEVEL:          0  ACCURACY: inf
STLB TIMELY PREFETCHES:       8945 LATE PREFETCHES: 2184 DROPPED PREFETCHES: 322712
STLB PREFETCHES SAME FILL-ORIGIN LEVEL: 0 DIFFERENT FILL-ORIGIN LEVEL: 0
STLB AVERAGE MISS LATENCY: 996.025 cycles
STLB RQ	ACCESS:   12160306	FORWARD:          0	MERGED:    1467895	TO_CACHE:   10692411

STLB Hit, L1D data hit: 0
STLB Hit, L2C data hit: 0
STLB Hit, LLC data hit: 0
STLB Hit, LLC data miss: 0
STLB STLB hints to L2: 0
L1D TOTAL     ACCESS:   56839266  HIT:   54226961  MISS:    2612305  HIT %:     95.404  MISS %:    4.59595   MPKI: 13.0615
L1D LOAD      ACCESS:   29043935  HIT:   26973140  MISS:    2070795  HIT %:    92.8701  MISS %:    7.12987   MPKI: 10.354
L1D RFO       ACCESS:   19268644  HIT:   18916365  MISS:     352279  HIT %:    98.1717  MISS %:    1.82825   MPKI: 1.7614
L1D PREFETCH  ACCESS:    8526687  HIT:    8337456  MISS:     189231  HIT %:    97.7807  MISS %:    2.21928   MPKI: 0.946155
AGUS PREFETCH L1 MISS: 0
L1D PREFETCH  REQUESTED:   19693312  ISSUED:   19691715  USEFUL:     104936  USELESS:      84276
L1D USEFUL LOAD PREFETCHES:     104936 PREFETCH ISSUED TO LOWER LEVEL:     234865  ACCURACY: 44.6793
L1D TIMELY PREFETCHES:     104936 LATE PREFETCHES: 45259 DROPPED PREFETCHES: 359052
L1D PREFETCHES SAME FILL-ORIGIN LEVEL: 234865 DIFFERENT FILL-ORIGIN LEVEL: 0
L1D AVERAGE MISS LATENCY: 5.75037e+06 cycles
L1D RQ	ACCESS:   43707849	FORWARD:          0	MERGED:   14315244	TO_CACHE:   29181603
L1D WQ	ACCESS:   19987410	FORWARD:     246011	MERGED:     288474	TO_CACHE:   19698936
L1D PQ	ACCESS:   10667691	FORWARD:          0	MERGED:    1608658	TO_CACHE:    9024024

L1D UNIQUE REGIONS ACCESSED: 0
L1D REGIONS CONFLICTS: 0
L1D Cross Page Prefetch Requests: 7438741
L1D Same Page Prefetch Requests: 4986128
L1D ROI Sum of L1D PQ occupancy: 140434791
L1D PREFETCHES PUSHED FROM L2C: 0
L1I TOTAL     ACCESS:   37142107  HIT:   32273843  MISS:    4868264  HIT %:    86.8929  MISS %:    13.1071   MPKI: 24.3413
L1I LOAD      ACCESS:   37142107  HIT:   32273843  MISS:    4868264  HIT %:    86.8929  MISS %:    13.1071   MPKI: 24.3413
L1I PREFETCH  REQUESTED:          0  ISSUED:          0  USEFUL:          0  USELESS:          0
L1I USEFUL LOAD PREFETCHES:          0 PREFETCH ISSUED TO LOWER LEVEL:          0  ACCURACY: -nan
L1I TIMELY PREFETCHES:          0 LATE PREFETCHES: 0 DROPPED PREFETCHES: 0
L1I PREFETCHES SAME FILL-ORIGIN LEVEL: 0 DIFFERENT FILL-ORIGIN LEVEL: 0
L1I AVERAGE MISS LATENCY: 29.2155 cycles
L1I RQ	ACCESS:   57586409	FORWARD:          0	MERGED:   18906474	TO_CACHE:   38679935

BTB TOTAL     ACCESS:   23884119  HIT:   18824312  MISS:    5059807  HIT %:    78.8152  MISS %:    21.1848   MPKI: 25.299
BTB BRANCH_DIRECT_JUMP	ACCESS:    1754249  HIT:    1463659  MISS:     290590
BTB BRANCH_INDIRECT	ACCESS:    9786566  HIT:    7419553  MISS:    2367013
BTB BRANCH_CONDITIONAL	ACCESS:    5653971  HIT:    5194175  MISS:     459796
BTB BRANCH_DIRECT_CALL	ACCESS:    2532331  HIT:    1980726  MISS:     551605
BTB BRANCH_INDIRECT_CALL	ACCESS:     808488  HIT:     692902  MISS:     115586
BTB BRANCH_RETURN	ACCESS:    3348514  HIT:    2073297  MISS:    1275217
BTB BRANCH_OTHER ACCESS:          0  HIT:          0  MISS:          0

L2C TOTAL     ACCESS:    9424878  HIT:    5670931  MISS:    3753947  HIT %:    60.1698  MISS %:    39.8302   MPKI: 18.7697
L2C LOAD      ACCESS:    6893746  HIT:    3679404  MISS:    3214342  HIT %:    53.3731  MISS %:    46.6269   MPKI: 16.0717
L2C DATA LOAD MPKI: 5.25443
L2C INSTRUCTION LOAD MPKI: 10.8173
L2C RFO       ACCESS:     351904  HIT:     173898  MISS:     178006  HIT %:    49.4163  MISS %:    50.5837   MPKI: 0.89003
L2C PREFETCH  ACCESS:     234847  HIT:     150555  MISS:      84292  HIT %:    64.1077  MISS %:    35.8923   MPKI: 0.42146
AGUS PREFETCH L1 MISS: 0
L2C DATA PREFETCH MPKI: 0.42146
L2C INSTRUCTION PREFETCH MPKI: 0
L2C WRITEBACK ACCESS:     996875  HIT:     944764  MISS:      52111  HIT %:    94.7726  MISS %:    5.22744   MPKI: 0.260555
L2C LOAD TRANSLATION ACCESS:     531409  HIT:     339470  MISS:     191939  HIT %:    63.8811  MISS %:    36.1189   MPKI: 0.959695
L2C TRANSLATION FROM L1D PREFETCHER ACCESS:     416097  HIT:     382840  MISS:      33257  HIT %:    92.0074  MISS %:    7.99261   MPKI: 0.166285
L2C PREFETCH  REQUESTED:          0  ISSUED:          0  USEFUL:      26846  USELESS:      90525
L2C USEFUL LOAD PREFETCHES:      26846 PREFETCH ISSUED TO LOWER LEVEL:      84292  ACCURACY: 31.8488
L2C TIMELY PREFETCHES:      26846 LATE PREFETCHES: 0 DROPPED PREFETCHES: 0
L2C PREFETCHES SAME FILL-ORIGIN LEVEL: 0 DIFFERENT FILL-ORIGIN LEVEL: 0
L2C AVERAGE MISS LATENCY: 43.646 cycles
L2C RQ	ACCESS:    8193210	FORWARD:          0	MERGED:          0	TO_CACHE:    8193156
L2C WQ	ACCESS:     996875	FORWARD:         72	MERGED:          0	TO_CACHE:     996875
L2C PQ	ACCESS:     234865	FORWARD:          0	MERGED:          0	TO_CACHE:     234847

L2C Instructions Evicting Data 780926
L2C Translations Evicting Data 86382
L2C Data Evicting Data 478789
L2C Instructions Evicting Instructions 1257101
L2C Translations Evicting Instructions 126561
L2C Data Evicting Instructions 750008
L2C Instructions Evicting Translations 125430
L2C Translations Evicting Translations 12253
L2C Data Evicting Translations 84386
L2C Dense regions hint from L2: 0
PSCL5 TOTAL     ACCESS:     701803  HIT:     701803  MISS:          0  HIT %:        100  MISS %:          0   MPKI: 0
PSCL5 LOAD TRANSLATION ACCESS:     420226  HIT:     420226  MISS:          0  HIT %:        100  MISS %:          0   MPKI: 0
PSCL5 TRANSLATION FROM L1D PREFETCHER ACCESS:     281577  HIT:     281577  MISS:          0  HIT %:        100  MISS %:          0   MPKI: 0
PSCL5 PREFETCH  REQUESTED:          0  ISSUED:          0  USEFUL:          0  USELESS:          0
PSCL5 USEFUL LOAD PREFETCHES:          0 PREFETCH ISSUED TO LOWER LEVEL:          0  ACCURACY: -nan
PSCL5 TIMELY PREFETCHES:          0 LATE PREFETCHES: 0 DROPPED PREFETCHES: 0
PSCL5 PREFETCHES SAME FILL-ORIGIN LEVEL: 0 DIFFERENT FILL-ORIGIN LEVEL: 0

PSCL4 TOTAL     ACCESS:     644273  HIT:     642991  MISS:       1282  HIT %:     99.801  MISS %:   0.198984   MPKI: 0.00641
PSCL4 LOAD TRANSLATION ACCESS:     400719  HIT:     399437  MISS:       1282  HIT %:    99.6801  MISS %:   0.319925   MPKI: 0.00641
PSCL4 TRANSLATION FROM L1D PREFETCHER ACCESS:     243554  HIT:     243554  MISS:          0  HIT %:        100  MISS %:          0   MPKI: 0
PSCL4 PREFETCH  REQUESTED:          0  ISSUED:          0  USEFUL:          0  USELESS:          0
PSCL4 USEFUL LOAD PREFETCHES:          0 PREFETCH ISSUED TO LOWER LEVEL:          0  ACCURACY: -nan
PSCL4 TIMELY PREFETCHES:          0 LATE PREFETCHES: 0 DROPPED PREFETCHES: 0
PSCL4 PREFETCHES SAME FILL-ORIGIN LEVEL: 0 DIFFERENT FILL-ORIGIN LEVEL: 0

PSCL3 TOTAL     ACCESS:     649614  HIT:     646114  MISS:       3500  HIT %:    99.4612  MISS %:   0.538781   MPKI: 0.0175
PSCL3 LOAD TRANSLATION ACCESS:     417139  HIT:     413639  MISS:       3500  HIT %:     99.161  MISS %:   0.839049   MPKI: 0.0175
PSCL3 TRANSLATION FROM L1D PREFETCHER ACCESS:     232475  HIT:     232475  MISS:          0  HIT %:        100  MISS %:          0   MPKI: 0
PSCL3 PREFETCH  REQUESTED:          0  ISSUED:          0  USEFUL:          0  USELESS:          0
PSCL3 USEFUL LOAD PREFETCHES:          0 PREFETCH ISSUED TO LOWER LEVEL:          0  ACCURACY: -nan
PSCL3 TIMELY PREFETCHES:          0 LATE PREFETCHES: 0 DROPPED PREFETCHES: 0
PSCL3 PREFETCHES SAME FILL-ORIGIN LEVEL: 0 DIFFERENT FILL-ORIGIN LEVEL: 0

PSCL2 TOTAL     ACCESS:     479873  HIT:     367214  MISS:     112659  HIT %:    76.5232  MISS %:    23.4768   MPKI: 0.563295
PSCL2 LOAD TRANSLATION ACCESS:     426334  HIT:     313675  MISS:     112659  HIT %:    73.5749  MISS %:    26.4251   MPKI: 0.563295
PSCL2 TRANSLATION FROM L1D PREFETCHER ACCESS:      53539  HIT:      53539  MISS:          0  HIT %:        100  MISS %:          0   MPKI: 0
PSCL2 PREFETCH  REQUESTED:          0  ISSUED:          0  USEFUL:          0  USELESS:          0
PSCL2 USEFUL LOAD PREFETCHES:          0 PREFETCH ISSUED TO LOWER LEVEL:          0  ACCURACY: -nan
PSCL2 TIMELY PREFETCHES:          0 LATE PREFETCHES: 0 DROPPED PREFETCHES: 0
PSCL2 PREFETCHES SAME FILL-ORIGIN LEVEL: 0 DIFFERENT FILL-ORIGIN LEVEL: 0

LLC TOTAL     ACCESS:    4170943  HIT:    3825968  MISS:     344975  HIT %:    91.7291  MISS %:    8.27091   MPKI: 1.72487
LLC LOAD      ACCESS:    3214339  HIT:    2957170  MISS:     257169  HIT %:    91.9993  MISS %:    8.00068   MPKI: 1.28584
LLC RFO       ACCESS:     178006  HIT:     116003  MISS:      62003  HIT %:     65.168  MISS %:     34.832   MPKI: 0.310015
LLC PREFETCH  ACCESS:      84290  HIT:      73478  MISS:      10812  HIT %:    87.1729  MISS %:    12.8271   MPKI: 0.05406
AGUS PREFETCH L1 MISS: 0
LLC WRITEBACK ACCESS:     469112  HIT:     463552  MISS:       5560  HIT %:    98.8148  MISS %:    1.18522   MPKI: 0.0278
LLC LOAD TRANSLATION ACCESS:     191939  HIT:     185819  MISS:       6120  HIT %:    96.8115  MISS %:    3.18851   MPKI: 0.0306
LLC TRANSLATION FROM L1D PREFETCHER ACCESS:      33257  HIT:      29946  MISS:       3311  HIT %:    90.0442  MISS %:     9.9558   MPKI: 0.016555
LLC PREFETCH  REQUESTED:          0  ISSUED:          0  USEFUL:       3282  USELESS:      10492
LLC USEFUL LOAD PREFETCHES:       3282 PREFETCH ISSUED TO LOWER LEVEL:      10812  ACCURACY: 30.3552
LLC TIMELY PREFETCHES:       3282 LATE PREFETCHES: 0 DROPPED PREFETCHES: 0
LLC PREFETCHES SAME FILL-ORIGIN LEVEL: 0 DIFFERENT FILL-ORIGIN LEVEL: 0
LLC AVERAGE MISS LATENCY: 152.918 cycles
LLC RQ	ACCESS:    3617544	FORWARD:          0	MERGED:          0	TO_CACHE:    3617541
LLC WQ	ACCESS:     469112	FORWARD:          5	MERGED:          0	TO_CACHE:     469112
LLC PQ	ACCESS:      84292	FORWARD:          0	MERGED:          0	TO_CACHE:      84290

LLC Dense regions hint to LLC: 0

RAW hits: 2663314
Loads Generated: 46371163
Loads sent to L1D: 43707849
Stores Generated: 19987388
Stores sent to L1D: 19987410
Major fault: 0 Minor fault: 7361
Allocated PAGES: 7361
Completed 

DRAM Statistics
 CHANNEL 0
 RQ ROW_BUFFER_HIT:      61809  ROW_BUFFER_MISS:     277605
 DBUS_CONGESTED:        125
 WQ ROW_BUFFER_HIT:      34477  ROW_BUFFER_MISS:     186471  FULL:          0

 AVG_CONGESTED_CYCLE: 4
 All warmup complete: 2
Channel 0 Bank busy for read cycles: 0
Channel 0 Bank busy for write cycles: 0
Channel 0
Rank 0
0banks busy for read cycles: 427386928
0banks busy for write cycles: 129921
1banks busy for read cycles: 32229769
1banks busy for write cycles: 18833282
2banks busy for read cycles: 4239354
2banks busy for write cycles: 4413319
3banks busy for read cycles: 542900
3banks busy for write cycles: 1395911
4banks busy for read cycles: 215412
4banks busy for write cycles: 579912
5banks busy for read cycles: 81018
5banks busy for write cycles: 285209
6banks busy for read cycles: 49578
6banks busy for write cycles: 190432
7banks busy for read cycles: 38187
7banks busy for write cycles: 170504
8banks busy for read cycles: 72122
8banks busy for write cycles: 245634

CPU 0 Branch Prediction Accuracy: 98.8611% MPKI: 2.07212 Average ROB Occupancy at Mispredict: 13.6128
Branch types
NOT_BRANCH: 163610883 81.8054%
BRANCH_DIRECT_JUMP: 1754249 0.877124%
BRANCH_INDIRECT: 9786566 4.89328%
BRANCH_CONDITIONAL: 18158639 9.07932%
BRANCH_DIRECT_CALL: 2532331 1.26617%
BRANCH_INDIRECT_CALL: 808488 0.404244%
BRANCH_RETURN: 3348514 1.67426%
BRANCH_OTHER: 0 0%

DRAM PAGES: 1048576
Allocated PAGES: 7361
