
*** ChampSim Multicore Out-of-Order Simulator ***

Warmup Instructions: 50000000
Simulation Instructions: 200000000
Number of CPUs: 1
LLC sets: 2048
LLC ways: 16
Off-chip DRAM Size: 4096 MB Channels: 1 Width: 64-bit Data Rate: 6400 MT/s
CPU 0 runs traces/spec2k17/server_025.champsimtrace.xz
.xz
BTB has LRU replacement policy
ITLB has LRU replacement policy
DTLB has LRU replacement policy
STLB has LRU replacement policy
L1I has LRU replacement policy
L1D has LRU replacement policy
Initialize SRRIP state for L2C
Initialize DRRIP state for LLC
Heartbeat CPU 0 instructions: 10000003 cycles: 2821188 heartbeat IPC: 3.54461 cumulative IPC: 3.54461 (Simulation time: 0 hr 0 min 25 sec) 
Heartbeat CPU 0 instructions: 20000000 cycles: 5640941 heartbeat IPC: 3.54641 cumulative IPC: 3.54551 (Simulation time: 0 hr 0 min 49 sec) 
Heartbeat CPU 0 instructions: 30000002 cycles: 8460495 heartbeat IPC: 3.54666 cumulative IPC: 3.54589 (Simulation time: 0 hr 1 min 14 sec) 
Heartbeat CPU 0 instructions: 40000001 cycles: 11281840 heartbeat IPC: 3.54441 cumulative IPC: 3.54552 (Simulation time: 0 hr 1 min 39 sec) 
Heartbeat CPU 0 instructions: 50000001 cycles: 14107201 heartbeat IPC: 3.53937 cumulative IPC: 3.54429 (Simulation time: 0 hr 2 min 4 sec) 

Warmup complete CPU 0 instructions: 50000001 cycles: 14107201 (Simulation time: 0 hr 2 min 4 sec) 

Heartbeat CPU 0 instructions: 60000000 cycles: 46209496 heartbeat IPC: 0.311504 cumulative IPC: 0.311504 (Simulation time: 0 hr 2 min 43 sec) 
Heartbeat CPU 0 instructions: 70000003 cycles: 78414248 heartbeat IPC: 0.310513 cumulative IPC: 0.311008 (Simulation time: 0 hr 3 min 22 sec) 
Heartbeat CPU 0 instructions: 80000000 cycles: 110693499 heartbeat IPC: 0.309796 cumulative IPC: 0.310603 (Simulation time: 0 hr 4 min 2 sec) 
Heartbeat CPU 0 instructions: 90000000 cycles: 142892809 heartbeat IPC: 0.310566 cumulative IPC: 0.310594 (Simulation time: 0 hr 4 min 42 sec) 
Heartbeat CPU 0 instructions: 100000000 cycles: 162699845 heartbeat IPC: 0.504871 cumulative IPC: 0.33649 (Simulation time: 0 hr 5 min 18 sec) 
*** Reached end of trace for Core: 0 Repeating trace: traces/spec2k17/server_025.champsimtrace.xz
Heartbeat CPU 0 instructions: 110000000 cycles: 194619141 heartbeat IPC: 0.31329 cumulative IPC: 0.332388 (Simulation time: 0 hr 5 min 58 sec) 
Heartbeat CPU 0 instructions: 120000000 cycles: 226408902 heartbeat IPC: 0.314567 cumulative IPC: 0.329719 (Simulation time: 0 hr 6 min 38 sec) 
Heartbeat CPU 0 instructions: 130000001 cycles: 258415180 heartbeat IPC: 0.312439 cumulative IPC: 0.327456 (Simulation time: 0 hr 7 min 18 sec) 
Heartbeat CPU 0 instructions: 140000002 cycles: 290196695 heartbeat IPC: 0.314648 cumulative IPC: 0.325981 (Simulation time: 0 hr 7 min 59 sec) 
Heartbeat CPU 0 instructions: 150000000 cycles: 322038836 heartbeat IPC: 0.314049 cumulative IPC: 0.324747 (Simulation time: 0 hr 8 min 40 sec) 
Heartbeat CPU 0 instructions: 160000000 cycles: 353972662 heartbeat IPC: 0.313148 cumulative IPC: 0.323657 (Simulation time: 0 hr 9 min 21 sec) 
Heartbeat CPU 0 instructions: 170000000 cycles: 385622550 heartbeat IPC: 0.315957 cumulative IPC: 0.323001 (Simulation time: 0 hr 10 min 2 sec) 
Heartbeat CPU 0 instructions: 180000001 cycles: 417680975 heartbeat IPC: 0.311931 cumulative IPC: 0.322122 (Simulation time: 0 hr 10 min 43 sec) 
Heartbeat CPU 0 instructions: 190000001 cycles: 449614651 heartbeat IPC: 0.313149 cumulative IPC: 0.321464 (Simulation time: 0 hr 11 min 24 sec) 
Heartbeat CPU 0 instructions: 200000003 cycles: 473572298 heartbeat IPC: 0.417403 cumulative IPC: 0.326467 (Simulation time: 0 hr 12 min 2 sec) 
*** Reached end of trace for Core: 0 Repeating trace: traces/spec2k17/server_025.champsimtrace.xz
Heartbeat CPU 0 instructions: 210000000 cycles: 501222202 heartbeat IPC: 0.361665 cumulative IPC: 0.328465 (Simulation time: 0 hr 12 min 41 sec) 
Heartbeat CPU 0 instructions: 220000000 cycles: 532946245 heartbeat IPC: 0.315218 cumulative IPC: 0.327655 (Simulation time: 0 hr 13 min 22 sec) 
Heartbeat CPU 0 instructions: 230000000 cycles: 564797570 heartbeat IPC: 0.313959 cumulative IPC: 0.326862 (Simulation time: 0 hr 14 min 2 sec) 
Heartbeat CPU 0 instructions: 240000002 cycles: 596399866 heartbeat IPC: 0.316433 cumulative IPC: 0.326296 (Simulation time: 0 hr 14 min 44 sec) 
Heartbeat CPU 0 instructions: 250000003 cycles: 628253930 heartbeat IPC: 0.313932 cumulative IPC: 0.325655 (Simulation time: 0 hr 15 min 26 sec) 
Finished CPU 0 instructions: 200000002 cycles: 614146729 cumulative IPC: 0.325655 (Simulation time: 0 hr 15 min 26 sec) 

ChampSim completed all CPUs

Region of Interest Statistics

CPU 0 cumulative IPC: 0.325655 instructions: 200000002 cycles: 614146729
ITLB TOTAL     ACCESS:   34736667  HIT:   32826337  MISS:    1910330  HIT %:    94.5005  MISS %:    5.49946   MPKI: 9.55165
ITLB LOAD TRANSLATION ACCESS:   34736667  HIT:   32826337  MISS:    1910330  HIT %:    94.5005  MISS %:    5.49946   MPKI: 9.55165
ITLB PREFETCH  REQUESTED:          0  ISSUED:          0  USEFUL:          0  USELESS:          0
ITLB USEFUL LOAD PREFETCHES:          0 PREFETCH ISSUED TO LOWER LEVEL:          0  ACCURACY: -nan
ITLB TIMELY PREFETCHES:          0 LATE PREFETCHES: 0 DROPPED PREFETCHES: 0
ITLB PREFETCHES SAME FILL-ORIGIN LEVEL: 0 DIFFERENT FILL-ORIGIN LEVEL: 0
ITLB AVERAGE MISS LATENCY: 9.0744 cycles
ITLB RQ	ACCESS:   40854210	FORWARD:          0	MERGED:    5661839	TO_CACHE:   35192371

DTLB TOTAL     ACCESS:   46057538  HIT:   44288904  MISS:    1768634  HIT %:    96.1599  MISS %:    3.84005   MPKI: 8.84317
DTLB LOAD TRANSLATION ACCESS:   46057538  HIT:   44288904  MISS:    1768634  HIT %:    96.1599  MISS %:    3.84005   MPKI: 8.84317
DTLB PREFETCH  REQUESTED:          0  ISSUED:          0  USEFUL:          0  USELESS:          0
DTLB USEFUL LOAD PREFETCHES:          0 PREFETCH ISSUED TO LOWER LEVEL:          0  ACCURACY: -nan
DTLB TIMELY PREFETCHES:          0 LATE PREFETCHES: 0 DROPPED PREFETCHES: 0
DTLB PREFETCHES SAME FILL-ORIGIN LEVEL: 0 DIFFERENT FILL-ORIGIN LEVEL: 0
DTLB AVERAGE MISS LATENCY: 8.49322 cycles
DTLB RQ	ACCESS:   60894418	FORWARD:          0	MERGED:   14777526	TO_CACHE:   46116892

STLB TOTAL     ACCESS:   20122049  HIT:   20109647  MISS:      12402  HIT %:    99.9384  MISS %:  0.0616339   MPKI: 0.06201
STLB LOAD TRANSLATION ACCESS:    3678964  HIT:    3668958  MISS:      10006  HIT %:     99.728  MISS %:   0.271979   MPKI: 0.05003
STLB TRANSLATION FROM L1D PREFETCHER ACCESS:   16443085  HIT:   16440689  MISS:       2396  HIT %:    99.9854  MISS %:  0.0145715   MPKI: 0.01198
STLB PREFETCH  REQUESTED:          0  ISSUED:          0  USEFUL:       1412  USELESS:        945
STLB USEFUL LOAD PREFETCHES:       1412 PREFETCH ISSUED TO LOWER LEVEL:          0  ACCURACY: inf
STLB TIMELY PREFETCHES:       1412 LATE PREFETCHES: 233 DROPPED PREFETCHES: 280917
STLB PREFETCHES SAME FILL-ORIGIN LEVEL: 0 DIFFERENT FILL-ORIGIN LEVEL: 0
STLB AVERAGE MISS LATENCY: 51.0309 cycles
STLB RQ	ACCESS:   23541717	FORWARD:          0	MERGED:    3137805	TO_CACHE:   20403912

STLB Hit, L1D data hit: 0
STLB Hit, L2C data hit: 0
STLB Hit, LLC data hit: 0
STLB Hit, LLC data miss: 0
STLB STLB hints to L2: 0
L1D TOTAL     ACCESS:   77989977  HIT:   73822931  MISS:    4167046  HIT %:    94.6569  MISS %:    5.34305   MPKI: 20.8352
L1D LOAD      ACCESS:   34022295  HIT:   31962700  MISS:    2059595  HIT %:    93.9463  MISS %:    6.05366   MPKI: 10.298
L1D RFO       ACCESS:   25223504  HIT:   24220420  MISS:    1003084  HIT %:    96.0232  MISS %:    3.97678   MPKI: 5.01542
L1D PREFETCH  ACCESS:   18744178  HIT:   17639811  MISS:    1104367  HIT %:    94.1082  MISS %:    5.89179   MPKI: 5.52183
AGUS PREFETCH L1 MISS: 0
L1D PREFETCH  REQUESTED:   41655419  ISSUED:   41655239  USEFUL:     754895  USELESS:     349416
L1D USEFUL LOAD PREFETCHES:     754895 PREFETCH ISSUED TO LOWER LEVEL:    1479667  ACCURACY: 51.0179
L1D TIMELY PREFETCHES:     754895 LATE PREFETCHES: 371321 DROPPED PREFETCHES: 311641
L1D PREFETCHES SAME FILL-ORIGIN LEVEL: 1479667 DIFFERENT FILL-ORIGIN LEVEL: 0
L1D AVERAGE MISS LATENCY: 3.4588e+07 cycles
L1D RQ	ACCESS:   47256001	FORWARD:          0	MERGED:   12827121	TO_CACHE:   34111442
L1D WQ	ACCESS:   26938645	FORWARD:     359383	MERGED:     155669	TO_CACHE:   26782976
L1D PQ	ACCESS:   21792486	FORWARD:          0	MERGED:    1887788	TO_CACHE:   19862753

L1D UNIQUE REGIONS ACCESSED: 0
L1D REGIONS CONFLICTS: 0
L1D Cross Page Prefetch Requests: 14630974
L1D Same Page Prefetch Requests: 8196424
L1D ROI Sum of L1D PQ occupancy: 279382644
L1D PREFETCHES PUSHED FROM L2C: 0
L1I TOTAL     ACCESS:   39430582  HIT:   29478326  MISS:    9952256  HIT %:    74.7601  MISS %:    25.2399   MPKI: 49.7613
L1I LOAD      ACCESS:   39430582  HIT:   29478326  MISS:    9952256  HIT %:    74.7601  MISS %:    25.2399   MPKI: 49.7613
L1I PREFETCH  REQUESTED:          0  ISSUED:          0  USEFUL:          0  USELESS:          0
L1I USEFUL LOAD PREFETCHES:          0 PREFETCH ISSUED TO LOWER LEVEL:          0  ACCURACY: -nan
L1I TIMELY PREFETCHES:          0 LATE PREFETCHES: 0 DROPPED PREFETCHES: 0
L1I PREFETCHES SAME FILL-ORIGIN LEVEL: 0 DIFFERENT FILL-ORIGIN LEVEL: 0
L1I AVERAGE MISS LATENCY: 16.6593 cycles
L1I RQ	ACCESS:   58628523	FORWARD:          0	MERGED:   17774313	TO_CACHE:   40854210

BTB TOTAL     ACCESS:   30413089  HIT:   18271054  MISS:   12142035  HIT %:    60.0763  MISS %:    39.9237   MPKI: 60.7102
BTB BRANCH_DIRECT_JUMP	ACCESS:    2033451  HIT:    1204611  MISS:     828840
BTB BRANCH_INDIRECT	ACCESS:   12129859  HIT:    7449972  MISS:    4679887
BTB BRANCH_CONDITIONAL	ACCESS:    7365128  HIT:    6117133  MISS:    1247995
BTB BRANCH_DIRECT_CALL	ACCESS:    3753650  HIT:    1796881  MISS:    1956769
BTB BRANCH_INDIRECT_CALL	ACCESS:     688651  HIT:     311222  MISS:     377429
BTB BRANCH_RETURN	ACCESS:    4442350  HIT:    1391235  MISS:    3051115
BTB BRANCH_OTHER ACCESS:          0  HIT:          0  MISS:          0

L2C TOTAL     ACCESS:   16438012  HIT:   14942686  MISS:    1495326  HIT %:    90.9032  MISS %:    9.09676   MPKI: 7.47663
L2C LOAD      ACCESS:   11640515  HIT:   10572182  MISS:    1068333  HIT %:    90.8223  MISS %:    9.17771   MPKI: 5.34166
L2C DATA LOAD MPKI: 1.14493
L2C INSTRUCTION LOAD MPKI: 4.19673
L2C RFO       ACCESS:     999104  HIT:     821162  MISS:     177942  HIT %:    82.1898  MISS %:    17.8102   MPKI: 0.88971
L2C PREFETCH  ACCESS:    1479610  HIT:    1320709  MISS:     158901  HIT %:    89.2606  MISS %:    10.7394   MPKI: 0.794505
AGUS PREFETCH L1 MISS: 0
L2C DATA PREFETCH MPKI: 0.794505
L2C INSTRUCTION PREFETCH MPKI: 0
L2C WRITEBACK ACCESS:    1907302  HIT:    1854220  MISS:      53082  HIT %:    97.2169  MISS %:    2.78309   MPKI: 0.26541
L2C LOAD TRANSLATION ACCESS:      10478  HIT:       3663  MISS:       6815  HIT %:     34.959  MISS %:     65.041   MPKI: 0.034075
L2C TRANSLATION FROM L1D PREFETCHER ACCESS:     401003  HIT:     370750  MISS:      30253  HIT %:    92.4557  MISS %:    7.54433   MPKI: 0.151265
L2C PREFETCH  REQUESTED:          0  ISSUED:          0  USEFUL:      30125  USELESS:     158882
L2C USEFUL LOAD PREFETCHES:      30125 PREFETCH ISSUED TO LOWER LEVEL:     158901  ACCURACY: 18.9583
L2C TIMELY PREFETCHES:      30125 LATE PREFETCHES: 0 DROPPED PREFETCHES: 0
L2C PREFETCHES SAME FILL-ORIGIN LEVEL: 0 DIFFERENT FILL-ORIGIN LEVEL: 0
L2C AVERAGE MISS LATENCY: 38.3231 cycles
L2C RQ	ACCESS:   13051116	FORWARD:          0	MERGED:          0	TO_CACHE:   13051100
L2C WQ	ACCESS:    1907302	FORWARD:         73	MERGED:          0	TO_CACHE:    1907302
L2C PQ	ACCESS:    1479667	FORWARD:          0	MERGED:          0	TO_CACHE:    1479610

L2C Instructions Evicting Data 310680
L2C Translations Evicting Data 17081
L2C Data Evicting Data 269187
L2C Instructions Evicting Instructions 509663
L2C Translations Evicting Instructions 19017
L2C Data Evicting Instructions 280317
L2C Instructions Evicting Translations 19004
L2C Translations Evicting Translations 970
L2C Data Evicting Translations 16325
L2C Dense regions hint from L2: 0
PSCL5 TOTAL     ACCESS:     279083  HIT:     279083  MISS:          0  HIT %:        100  MISS %:          0   MPKI: 0
PSCL5 LOAD TRANSLATION ACCESS:       9781  HIT:       9781  MISS:          0  HIT %:        100  MISS %:          0   MPKI: 0
PSCL5 TRANSLATION FROM L1D PREFETCHER ACCESS:     269302  HIT:     269302  MISS:          0  HIT %:        100  MISS %:          0   MPKI: 0
PSCL5 PREFETCH  REQUESTED:          0  ISSUED:          0  USEFUL:          0  USELESS:          0
PSCL5 USEFUL LOAD PREFETCHES:          0 PREFETCH ISSUED TO LOWER LEVEL:          0  ACCURACY: -nan
PSCL5 TIMELY PREFETCHES:          0 LATE PREFETCHES: 0 DROPPED PREFETCHES: 0
PSCL5 PREFETCHES SAME FILL-ORIGIN LEVEL: 0 DIFFERENT FILL-ORIGIN LEVEL: 0

PSCL4 TOTAL     ACCESS:     178537  HIT:     178487  MISS:         50  HIT %:     99.972  MISS %:  0.0280054   MPKI: 0.00025
PSCL4 LOAD TRANSLATION ACCESS:       7711  HIT:       7661  MISS:         50  HIT %:    99.3516  MISS %:   0.648424   MPKI: 0.00025
PSCL4 TRANSLATION FROM L1D PREFETCHER ACCESS:     170826  HIT:     170826  MISS:          0  HIT %:        100  MISS %:          0   MPKI: 0
PSCL4 PREFETCH  REQUESTED:          0  ISSUED:          0  USEFUL:          0  USELESS:          0
PSCL4 USEFUL LOAD PREFETCHES:          0 PREFETCH ISSUED TO LOWER LEVEL:          0  ACCURACY: -nan
PSCL4 TIMELY PREFETCHES:          0 LATE PREFETCHES: 0 DROPPED PREFETCHES: 0
PSCL4 PREFETCHES SAME FILL-ORIGIN LEVEL: 0 DIFFERENT FILL-ORIGIN LEVEL: 0

PSCL3 TOTAL     ACCESS:     204624  HIT:     204529  MISS:         95  HIT %:    99.9536  MISS %:  0.0464266   MPKI: 0.000475
PSCL3 LOAD TRANSLATION ACCESS:       9241  HIT:       9146  MISS:         95  HIT %:     98.972  MISS %:    1.02803   MPKI: 0.000475
PSCL3 TRANSLATION FROM L1D PREFETCHER ACCESS:     195383  HIT:     195383  MISS:          0  HIT %:        100  MISS %:          0   MPKI: 0
PSCL3 PREFETCH  REQUESTED:          0  ISSUED:          0  USEFUL:          0  USELESS:          0
PSCL3 USEFUL LOAD PREFETCHES:          0 PREFETCH ISSUED TO LOWER LEVEL:          0  ACCURACY: -nan
PSCL3 TIMELY PREFETCHES:          0 LATE PREFETCHES: 0 DROPPED PREFETCHES: 0
PSCL3 PREFETCHES SAME FILL-ORIGIN LEVEL: 0 DIFFERENT FILL-ORIGIN LEVEL: 0

PSCL2 TOTAL     ACCESS:      76644  HIT:      76001  MISS:        643  HIT %:    99.1611  MISS %:   0.838944   MPKI: 0.003215
PSCL2 LOAD TRANSLATION ACCESS:       9861  HIT:       9218  MISS:        643  HIT %:    93.4794  MISS %:    6.52064   MPKI: 0.003215
PSCL2 TRANSLATION FROM L1D PREFETCHER ACCESS:      66783  HIT:      66783  MISS:          0  HIT %:        100  MISS %:          0   MPKI: 0
PSCL2 PREFETCH  REQUESTED:          0  ISSUED:          0  USEFUL:          0  USELESS:          0
PSCL2 USEFUL LOAD PREFETCHES:          0 PREFETCH ISSUED TO LOWER LEVEL:          0  ACCURACY: -nan
PSCL2 TIMELY PREFETCHES:          0 LATE PREFETCHES: 0 DROPPED PREFETCHES: 0
PSCL2 PREFETCHES SAME FILL-ORIGIN LEVEL: 0 DIFFERENT FILL-ORIGIN LEVEL: 0

LLC TOTAL     ACCESS:    1696776  HIT:    1608079  MISS:      88697  HIT %:    94.7726  MISS %:    5.22738   MPKI: 0.443485
LLC LOAD      ACCESS:    1068333  HIT:    1039848  MISS:      28485  HIT %:    97.3337  MISS %:     2.6663   MPKI: 0.142425
LLC RFO       ACCESS:     177942  HIT:     136244  MISS:      41698  HIT %:    76.5665  MISS %:    23.4335   MPKI: 0.20849
LLC PREFETCH  ACCESS:     158901  HIT:     142687  MISS:      16214  HIT %:    89.7962  MISS %:    10.2038   MPKI: 0.08107
AGUS PREFETCH L1 MISS: 0
LLC WRITEBACK ACCESS:     254532  HIT:     253644  MISS:        888  HIT %:    99.6511  MISS %:   0.348876   MPKI: 0.00444
LLC LOAD TRANSLATION ACCESS:       6815  HIT:       6531  MISS:        284  HIT %:    95.8327  MISS %:    4.16728   MPKI: 0.00142
LLC TRANSLATION FROM L1D PREFETCHER ACCESS:      30253  HIT:      29125  MISS:       1128  HIT %:    96.2714  MISS %:    3.72856   MPKI: 0.00564
LLC PREFETCH  REQUESTED:          0  ISSUED:          0  USEFUL:       2471  USELESS:      13873
LLC USEFUL LOAD PREFETCHES:       2471 PREFETCH ISSUED TO LOWER LEVEL:      16214  ACCURACY: 15.2399
LLC TIMELY PREFETCHES:       2471 LATE PREFETCHES: 0 DROPPED PREFETCHES: 0
LLC PREFETCHES SAME FILL-ORIGIN LEVEL: 0 DIFFERENT FILL-ORIGIN LEVEL: 0
LLC AVERAGE MISS LATENCY: 157.995 cycles
LLC RQ	ACCESS:    1283343	FORWARD:          0	MERGED:          0	TO_CACHE:    1283343
LLC WQ	ACCESS:     254532	FORWARD:          0	MERGED:          0	TO_CACHE:     254532
LLC PQ	ACCESS:     158901	FORWARD:          0	MERGED:          0	TO_CACHE:     158901

LLC Dense regions hint to LLC: 0

RAW hits: 1786986
Loads Generated: 49042988
Loads sent to L1D: 47256001
Stores Generated: 26938645
Stores sent to L1D: 26938645
Major fault: 0 Minor fault: 2563
Allocated PAGES: 2563
Completed 

DRAM Statistics
 CHANNEL 0
 RQ ROW_BUFFER_HIT:      32126  ROW_BUFFER_MISS:      55657
 DBUS_CONGESTED:         51
 WQ ROW_BUFFER_HIT:       4059  ROW_BUFFER_MISS:      41263  FULL:          0

 AVG_CONGESTED_CYCLE: 5
 All warmup complete: 2
Channel 0 Bank busy for read cycles: 0
Channel 0 Bank busy for write cycles: 0
Channel 0
Rank 0
0banks busy for read cycles: 606535902
0banks busy for write cycles: 13138
1banks busy for read cycles: 3049285
1banks busy for write cycles: 1708022
2banks busy for read cycles: 510119
2banks busy for write cycles: 342212
3banks busy for read cycles: 241694
3banks busy for write cycles: 166853
4banks busy for read cycles: 184896
4banks busy for write cycles: 128563
5banks busy for read cycles: 151543
5banks busy for write cycles: 109546
6banks busy for read cycles: 132282
6banks busy for write cycles: 111578
7banks busy for read cycles: 132740
7banks busy for write cycles: 113214
8banks busy for read cycles: 246312
8banks busy for write cycles: 268831

CPU 0 Branch Prediction Accuracy: 99.8625% MPKI: 0.24407 Average ROB Occupancy at Mispredict: 29.7984
Branch types
NOT_BRANCH: 164508669 82.2543%
BRANCH_DIRECT_JUMP: 2033451 1.01673%
BRANCH_INDIRECT: 12129859 6.06493%
BRANCH_CONDITIONAL: 12443472 6.22174%
BRANCH_DIRECT_CALL: 3753650 1.87682%
BRANCH_INDIRECT_CALL: 688651 0.344325%
BRANCH_RETURN: 4442350 2.22117%
BRANCH_OTHER: 0 0%

DRAM PAGES: 1048576
Allocated PAGES: 2563
