
*** ChampSim Multicore Out-of-Order Simulator ***

Warmup Instructions: 50000000
Simulation Instructions: 200000000
Number of CPUs: 1
LLC sets: 2048
LLC ways: 16
Off-chip DRAM Size: 4096 MB Channels: 1 Width: 64-bit Data Rate: 6400 MT/s
CPU 0 runs traces/spec2k17/server_016.champsimtrace.xz
.xz
BTB has LRU replacement policy
ITLB has LRU replacement policy
DTLB has LRU replacement policy
STLB has LRU replacement policy
L1I has LRU replacement policy
L1D has LRU replacement policy
Initialize SRRIP state for L2C
Initialize DRRIP state for LLC
Heartbeat CPU 0 instructions: 10000000 cycles: 2811433 heartbeat IPC: 3.55691 cumulative IPC: 3.55691 (Simulation time: 0 hr 0 min 25 sec) 
Heartbeat CPU 0 instructions: 20000000 cycles: 5617716 heartbeat IPC: 3.56343 cumulative IPC: 3.56017 (Simulation time: 0 hr 0 min 49 sec) 
Heartbeat CPU 0 instructions: 30000000 cycles: 8423831 heartbeat IPC: 3.56365 cumulative IPC: 3.56133 (Simulation time: 0 hr 1 min 14 sec) 
Heartbeat CPU 0 instructions: 40000000 cycles: 11529410 heartbeat IPC: 3.22001 cumulative IPC: 3.46939 (Simulation time: 0 hr 1 min 30 sec) 
Heartbeat CPU 0 instructions: 50000001 cycles: 14795884 heartbeat IPC: 3.06141 cumulative IPC: 3.37932 (Simulation time: 0 hr 1 min 40 sec) 

Warmup complete CPU 0 instructions: 50000001 cycles: 14795884 (Simulation time: 0 hr 1 min 40 sec) 

Heartbeat CPU 0 instructions: 60000001 cycles: 29233915 heartbeat IPC: 0.692615 cumulative IPC: 0.692615 (Simulation time: 0 hr 2 min 4 sec) 
Heartbeat CPU 0 instructions: 70000001 cycles: 58864859 heartbeat IPC: 0.337485 cumulative IPC: 0.453834 (Simulation time: 0 hr 2 min 42 sec) 
Heartbeat CPU 0 instructions: 80000000 cycles: 89395262 heartbeat IPC: 0.327542 cumulative IPC: 0.402148 (Simulation time: 0 hr 3 min 20 sec) 
Heartbeat CPU 0 instructions: 90000001 cycles: 118894684 heartbeat IPC: 0.33899 cumulative IPC: 0.38425 (Simulation time: 0 hr 3 min 59 sec) 
Heartbeat CPU 0 instructions: 100000000 cycles: 148845744 heartbeat IPC: 0.333878 cumulative IPC: 0.372996 (Simulation time: 0 hr 4 min 38 sec) 
*** Reached end of trace for Core: 0 Repeating trace: traces/spec2k17/server_016.champsimtrace.xz
Heartbeat CPU 0 instructions: 110000000 cycles: 178213913 heartbeat IPC: 0.340505 cumulative IPC: 0.367157 (Simulation time: 0 hr 5 min 17 sec) 
Heartbeat CPU 0 instructions: 120000003 cycles: 208192504 heartbeat IPC: 0.333571 cumulative IPC: 0.36195 (Simulation time: 0 hr 5 min 56 sec) 
Heartbeat CPU 0 instructions: 130000000 cycles: 237810220 heartbeat IPC: 0.337636 cumulative IPC: 0.358721 (Simulation time: 0 hr 6 min 37 sec) 
Heartbeat CPU 0 instructions: 140000000 cycles: 262012641 heartbeat IPC: 0.413182 cumulative IPC: 0.364053 (Simulation time: 0 hr 7 min 13 sec) 
Heartbeat CPU 0 instructions: 150000003 cycles: 276449797 heartbeat IPC: 0.692657 cumulative IPC: 0.382184 (Simulation time: 0 hr 7 min 37 sec) 
Heartbeat CPU 0 instructions: 160000001 cycles: 290887043 heartbeat IPC: 0.692653 cumulative IPC: 0.398419 (Simulation time: 0 hr 8 min 1 sec) 
Heartbeat CPU 0 instructions: 170000000 cycles: 315793392 heartbeat IPC: 0.401504 cumulative IPC: 0.398674 (Simulation time: 0 hr 8 min 36 sec) 
Heartbeat CPU 0 instructions: 180000003 cycles: 345909191 heartbeat IPC: 0.332052 cumulative IPC: 0.392615 (Simulation time: 0 hr 9 min 16 sec) 
Heartbeat CPU 0 instructions: 190000000 cycles: 375840749 heartbeat IPC: 0.334095 cumulative IPC: 0.387763 (Simulation time: 0 hr 9 min 56 sec) 
Heartbeat CPU 0 instructions: 200000000 cycles: 404981550 heartbeat IPC: 0.343161 cumulative IPC: 0.384432 (Simulation time: 0 hr 10 min 37 sec) 
*** Reached end of trace for Core: 0 Repeating trace: traces/spec2k17/server_016.champsimtrace.xz
Heartbeat CPU 0 instructions: 210000000 cycles: 434562098 heartbeat IPC: 0.33806 cumulative IPC: 0.381165 (Simulation time: 0 hr 11 min 18 sec) 
Heartbeat CPU 0 instructions: 220000000 cycles: 464210435 heartbeat IPC: 0.337287 cumulative IPC: 0.37827 (Simulation time: 0 hr 11 min 58 sec) 
Heartbeat CPU 0 instructions: 230000000 cycles: 493655118 heartbeat IPC: 0.33962 cumulative IPC: 0.375893 (Simulation time: 0 hr 12 min 37 sec) 
Heartbeat CPU 0 instructions: 240000000 cycles: 522268388 heartbeat IPC: 0.349488 cumulative IPC: 0.374405 (Simulation time: 0 hr 13 min 15 sec) 
Heartbeat CPU 0 instructions: 250000003 cycles: 536738908 heartbeat IPC: 0.69106 cumulative IPC: 0.383184 (Simulation time: 0 hr 13 min 38 sec) 
Finished CPU 0 instructions: 200000002 cycles: 521943024 cumulative IPC: 0.383184 (Simulation time: 0 hr 13 min 38 sec) 

ChampSim completed all CPUs

Region of Interest Statistics

CPU 0 cumulative IPC: 0.383184 instructions: 200000002 cycles: 521943024
ITLB TOTAL     ACCESS:   37653690  HIT:   36243482  MISS:    1410208  HIT %:    96.2548  MISS %:    3.74521   MPKI: 7.05104
ITLB LOAD TRANSLATION ACCESS:   37653690  HIT:   36243482  MISS:    1410208  HIT %:    96.2548  MISS %:    3.74521   MPKI: 7.05104
ITLB PREFETCH  REQUESTED:          0  ISSUED:          0  USEFUL:          0  USELESS:          0
ITLB USEFUL LOAD PREFETCHES:          0 PREFETCH ISSUED TO LOWER LEVEL:          0  ACCURACY: -nan
ITLB TIMELY PREFETCHES:          0 LATE PREFETCHES: 0 DROPPED PREFETCHES: 0
ITLB PREFETCHES SAME FILL-ORIGIN LEVEL: 0 DIFFERENT FILL-ORIGIN LEVEL: 0
ITLB AVERAGE MISS LATENCY: 9.07245 cycles
ITLB RQ	ACCESS:   42294482	FORWARD:          0	MERGED:    4300682	TO_CACHE:   37993800

DTLB TOTAL     ACCESS:   39366399  HIT:   37995535  MISS:    1370864  HIT %:    96.5177  MISS %:    3.48232   MPKI: 6.85432
DTLB LOAD TRANSLATION ACCESS:   39366399  HIT:   37995535  MISS:    1370864  HIT %:    96.5177  MISS %:    3.48232   MPKI: 6.85432
DTLB PREFETCH  REQUESTED:          0  ISSUED:          0  USEFUL:          0  USELESS:          0
DTLB USEFUL LOAD PREFETCHES:          0 PREFETCH ISSUED TO LOWER LEVEL:          0  ACCURACY: -nan
DTLB TIMELY PREFETCHES:          0 LATE PREFETCHES: 0 DROPPED PREFETCHES: 0
DTLB PREFETCHES SAME FILL-ORIGIN LEVEL: 0 DIFFERENT FILL-ORIGIN LEVEL: 0
DTLB AVERAGE MISS LATENCY: 8.71224 cycles
DTLB RQ	ACCESS:   50786350	FORWARD:          0	MERGED:   11369155	TO_CACHE:   39417195

STLB TOTAL     ACCESS:   14881763  HIT:   14871619  MISS:      10144  HIT %:    99.9318  MISS %:   0.068164   MPKI: 0.05072
STLB LOAD TRANSLATION ACCESS:    2781072  HIT:    2772685  MISS:       8387  HIT %:    99.6984  MISS %:   0.301574   MPKI: 0.041935
STLB TRANSLATION FROM L1D PREFETCHER ACCESS:   12100691  HIT:   12098934  MISS:       1757  HIT %:    99.9855  MISS %:  0.0145198   MPKI: 0.008785
STLB PREFETCH  REQUESTED:          0  ISSUED:          0  USEFUL:       1162  USELESS:        572
STLB USEFUL LOAD PREFETCHES:       1162 PREFETCH ISSUED TO LOWER LEVEL:          0  ACCURACY: inf
STLB TIMELY PREFETCHES:       1162 LATE PREFETCHES: 163 DROPPED PREFETCHES: 144213
STLB PREFETCHES SAME FILL-ORIGIN LEVEL: 0 DIFFERENT FILL-ORIGIN LEVEL: 0
STLB AVERAGE MISS LATENCY: 52.9875 cycles
STLB RQ	ACCESS:   18616850	FORWARD:          0	MERGED:    3590520	TO_CACHE:   15026330

STLB Hit, L1D data hit: 0
STLB Hit, L2C data hit: 0
STLB Hit, LLC data hit: 0
STLB Hit, LLC data miss: 0
STLB STLB hints to L2: 0
L1D TOTAL     ACCESS:   64646506  HIT:   61367099  MISS:    3279407  HIT %:    94.9272  MISS %:    5.07283   MPKI: 16.397
L1D LOAD      ACCESS:   29979746  HIT:   28236262  MISS:    1743484  HIT %:    94.1845  MISS %:    5.81554   MPKI: 8.71742
L1D RFO       ACCESS:   19492596  HIT:   18702803  MISS:     789793  HIT %:    95.9482  MISS %:    4.05176   MPKI: 3.94896
L1D PREFETCH  ACCESS:   15174164  HIT:   14428034  MISS:     746130  HIT %:    95.0829  MISS %:    4.91711   MPKI: 3.73065
AGUS PREFETCH L1 MISS: 0
L1D PREFETCH  REQUESTED:   33219726  ISSUED:   33219602  USEFUL:     486831  USELESS:     259267
L1D USEFUL LOAD PREFETCHES:     486831 PREFETCH ISSUED TO LOWER LEVEL:     998551  ACCURACY: 48.7537
L1D TIMELY PREFETCHES:     486831 LATE PREFETCHES: 250700 DROPPED PREFETCHES: 157877
L1D PREFETCHES SAME FILL-ORIGIN LEVEL: 998551 DIFFERENT FILL-ORIGIN LEVEL: 0
L1D AVERAGE MISS LATENCY: 2.58868e+07 cycles
L1D RQ	ACCESS:   40519128	FORWARD:          0	MERGED:   10214981	TO_CACHE:   30055648
L1D WQ	ACCESS:   20857481	FORWARD:     271422	MERGED:     126779	TO_CACHE:   20730702
L1D PQ	ACCESS:   17383824	FORWARD:          0	MERGED:    1525123	TO_CACHE:   15835778

L1D UNIQUE REGIONS ACCESSED: 0
L1D REGIONS CONFLICTS: 0
L1D Cross Page Prefetch Requests: 9336968
L1D Same Page Prefetch Requests: 10141434
L1D ROI Sum of L1D PQ occupancy: 218137503
L1D PREFETCHES PUSHED FROM L2C: 0
L1I TOTAL     ACCESS:   41215226  HIT:   33840014  MISS:    7375212  HIT %:    82.1056  MISS %:    17.8944   MPKI: 36.8761
L1I LOAD      ACCESS:   41215226  HIT:   33840014  MISS:    7375212  HIT %:    82.1056  MISS %:    17.8944   MPKI: 36.8761
L1I PREFETCH  REQUESTED:          0  ISSUED:          0  USEFUL:          0  USELESS:          0
L1I USEFUL LOAD PREFETCHES:          0 PREFETCH ISSUED TO LOWER LEVEL:          0  ACCURACY: -nan
L1I TIMELY PREFETCHES:          0 LATE PREFETCHES: 0 DROPPED PREFETCHES: 0
L1I PREFETCHES SAME FILL-ORIGIN LEVEL: 0 DIFFERENT FILL-ORIGIN LEVEL: 0
L1I AVERAGE MISS LATENCY: 16.6099 cycles
L1I RQ	ACCESS:   59995848	FORWARD:          0	MERGED:   17701366	TO_CACHE:   42294482

BTB TOTAL     ACCESS:   31149502  HIT:   22487623  MISS:    8661879  HIT %:    72.1926  MISS %:    27.8074   MPKI: 43.3094
BTB BRANCH_DIRECT_JUMP	ACCESS:    1790889  HIT:    1185918  MISS:     604971
BTB BRANCH_INDIRECT	ACCESS:    9233189  HIT:    5986023  MISS:    3247166
BTB BRANCH_CONDITIONAL	ACCESS:   13716226  HIT:   12843151  MISS:     873075
BTB BRANCH_DIRECT_CALL	ACCESS:    2729399  HIT:    1310065  MISS:    1419334
BTB BRANCH_INDIRECT_CALL	ACCESS:     475210  HIT:     188709  MISS:     286501
BTB BRANCH_RETURN	ACCESS:    3204589  HIT:     973757  MISS:    2230832
BTB BRANCH_OTHER ACCESS:          0  HIT:          0  MISS:          0

L2C TOTAL     ACCESS:   12278463  HIT:   11074842  MISS:    1203621  HIT %:    90.1973  MISS %:     9.8027   MPKI: 6.0181
L2C LOAD      ACCESS:    8867961  HIT:    8011752  MISS:     856209  HIT %:    90.3449  MISS %:    9.65508   MPKI: 4.28104
L2C DATA LOAD MPKI: 1.24795
L2C INSTRUCTION LOAD MPKI: 3.03309
L2C RFO       ACCESS:     788053  HIT:     639487  MISS:     148566  HIT %:    81.1477  MISS %:    18.8523   MPKI: 0.74283
L2C PREFETCH  ACCESS:     998542  HIT:     860837  MISS:     137705  HIT %:    86.2094  MISS %:    13.7906   MPKI: 0.688525
AGUS PREFETCH L1 MISS: 0
L2C DATA PREFETCH MPKI: 0.688525
L2C INSTRUCTION PREFETCH MPKI: 0
L2C WRITEBACK ACCESS:    1415631  HIT:    1381387  MISS:      34244  HIT %:     97.581  MISS %:    2.41899   MPKI: 0.17122
L2C LOAD TRANSLATION ACCESS:       9209  HIT:       3269  MISS:       5940  HIT %:    35.4979  MISS %:    64.5021   MPKI: 0.0297
L2C TRANSLATION FROM L1D PREFETCHER ACCESS:     199067  HIT:     178110  MISS:      20957  HIT %:    89.4724  MISS %:    10.5276   MPKI: 0.104785
L2C PREFETCH  REQUESTED:          0  ISSUED:          0  USEFUL:      28052  USELESS:     130440
L2C USEFUL LOAD PREFETCHES:      28052 PREFETCH ISSUED TO LOWER LEVEL:     137705  ACCURACY: 20.3711
L2C TIMELY PREFETCHES:      28052 LATE PREFETCHES: 0 DROPPED PREFETCHES: 0
L2C PREFETCHES SAME FILL-ORIGIN LEVEL: 0 DIFFERENT FILL-ORIGIN LEVEL: 0
L2C AVERAGE MISS LATENCY: 43.8236 cycles
L2C RQ	ACCESS:    9864344	FORWARD:          0	MERGED:          0	TO_CACHE:    9864290
L2C WQ	ACCESS:    1415631	FORWARD:         63	MERGED:          0	TO_CACHE:    1415631
L2C PQ	ACCESS:     998551	FORWARD:          0	MERGED:          0	TO_CACHE:     998542

L2C Instructions Evicting Data 256280
L2C Translations Evicting Data 15521
L2C Data Evicting Data 284382
L2C Instructions Evicting Instructions 339400
L2C Translations Evicting Instructions 10494
L2C Data Evicting Instructions 236891
L2C Instructions Evicting Translations 10938
L2C Translations Evicting Translations 882
L2C Data Evicting Translations 14589
L2C Dense regions hint from L2: 0
PSCL5 TOTAL     ACCESS:     151128  HIT:     151128  MISS:          0  HIT %:        100  MISS %:          0   MPKI: 0
PSCL5 LOAD TRANSLATION ACCESS:       8230  HIT:       8230  MISS:          0  HIT %:        100  MISS %:          0   MPKI: 0
PSCL5 TRANSLATION FROM L1D PREFETCHER ACCESS:     142898  HIT:     142898  MISS:          0  HIT %:        100  MISS %:          0   MPKI: 0
PSCL5 PREFETCH  REQUESTED:          0  ISSUED:          0  USEFUL:          0  USELESS:          0
PSCL5 USEFUL LOAD PREFETCHES:          0 PREFETCH ISSUED TO LOWER LEVEL:          0  ACCURACY: -nan
PSCL5 TIMELY PREFETCHES:          0 LATE PREFETCHES: 0 DROPPED PREFETCHES: 0
PSCL5 PREFETCHES SAME FILL-ORIGIN LEVEL: 0 DIFFERENT FILL-ORIGIN LEVEL: 0

PSCL4 TOTAL     ACCESS:     116033  HIT:     115979  MISS:         54  HIT %:    99.9535  MISS %:  0.0465385   MPKI: 0.00027
PSCL4 LOAD TRANSLATION ACCESS:       7494  HIT:       7440  MISS:         54  HIT %:    99.2794  MISS %:   0.720576   MPKI: 0.00027
PSCL4 TRANSLATION FROM L1D PREFETCHER ACCESS:     108539  HIT:     108539  MISS:          0  HIT %:        100  MISS %:          0   MPKI: 0
PSCL4 PREFETCH  REQUESTED:          0  ISSUED:          0  USEFUL:          0  USELESS:          0
PSCL4 USEFUL LOAD PREFETCHES:          0 PREFETCH ISSUED TO LOWER LEVEL:          0  ACCURACY: -nan
PSCL4 TIMELY PREFETCHES:          0 LATE PREFETCHES: 0 DROPPED PREFETCHES: 0
PSCL4 PREFETCHES SAME FILL-ORIGIN LEVEL: 0 DIFFERENT FILL-ORIGIN LEVEL: 0

PSCL3 TOTAL     ACCESS:     126510  HIT:     126456  MISS:         54  HIT %:    99.9573  MISS %:  0.0426844   MPKI: 0.00027
PSCL3 LOAD TRANSLATION ACCESS:       8117  HIT:       8063  MISS:         54  HIT %:    99.3347  MISS %:    0.66527   MPKI: 0.00027
PSCL3 TRANSLATION FROM L1D PREFETCHER ACCESS:     118393  HIT:     118393  MISS:          0  HIT %:        100  MISS %:          0   MPKI: 0
PSCL3 PREFETCH  REQUESTED:          0  ISSUED:          0  USEFUL:          0  USELESS:          0
PSCL3 USEFUL LOAD PREFETCHES:          0 PREFETCH ISSUED TO LOWER LEVEL:          0  ACCURACY: -nan
PSCL3 TIMELY PREFETCHES:          0 LATE PREFETCHES: 0 DROPPED PREFETCHES: 0
PSCL3 PREFETCHES SAME FILL-ORIGIN LEVEL: 0 DIFFERENT FILL-ORIGIN LEVEL: 0

PSCL2 TOTAL     ACCESS:      43107  HIT:      42117  MISS:        990  HIT %:    97.7034  MISS %:    2.29661   MPKI: 0.00495
PSCL2 LOAD TRANSLATION ACCESS:       8327  HIT:       7337  MISS:        990  HIT %:     88.111  MISS %:     11.889   MPKI: 0.00495
PSCL2 TRANSLATION FROM L1D PREFETCHER ACCESS:      34780  HIT:      34780  MISS:          0  HIT %:        100  MISS %:          0   MPKI: 0
PSCL2 PREFETCH  REQUESTED:          0  ISSUED:          0  USEFUL:          0  USELESS:          0
PSCL2 USEFUL LOAD PREFETCHES:          0 PREFETCH ISSUED TO LOWER LEVEL:          0  ACCURACY: -nan
PSCL2 TIMELY PREFETCHES:          0 LATE PREFETCHES: 0 DROPPED PREFETCHES: 0
PSCL2 PREFETCHES SAME FILL-ORIGIN LEVEL: 0 DIFFERENT FILL-ORIGIN LEVEL: 0

LLC TOTAL     ACCESS:    1379557  HIT:    1272125  MISS:     107432  HIT %:    92.2126  MISS %:    7.78743   MPKI: 0.53716
LLC LOAD      ACCESS:     856209  HIT:     819805  MISS:      36404  HIT %:    95.7482  MISS %:    4.25177   MPKI: 0.18202
LLC RFO       ACCESS:     148558  HIT:      94971  MISS:      53587  HIT %:    63.9286  MISS %:    36.0714   MPKI: 0.267935
LLC PREFETCH  ACCESS:     137705  HIT:     123224  MISS:      14481  HIT %:     89.484  MISS %:     10.516   MPKI: 0.072405
AGUS PREFETCH L1 MISS: 0
LLC WRITEBACK ACCESS:     210188  HIT:     209226  MISS:        962  HIT %:    99.5423  MISS %:   0.457686   MPKI: 0.00481
LLC LOAD TRANSLATION ACCESS:       5940  HIT:       5545  MISS:        395  HIT %:    93.3502  MISS %:    6.64983   MPKI: 0.001975
LLC TRANSLATION FROM L1D PREFETCHER ACCESS:      20957  HIT:      19354  MISS:       1603  HIT %:     92.351  MISS %:      7.649   MPKI: 0.008015
LLC PREFETCH  REQUESTED:          0  ISSUED:          0  USEFUL:       2011  USELESS:      12927
LLC USEFUL LOAD PREFETCHES:       2011 PREFETCH ISSUED TO LOWER LEVEL:      14481  ACCURACY: 13.8872
LLC TIMELY PREFETCHES:       2011 LATE PREFETCHES: 0 DROPPED PREFETCHES: 0
LLC PREFETCHES SAME FILL-ORIGIN LEVEL: 0 DIFFERENT FILL-ORIGIN LEVEL: 0
LLC AVERAGE MISS LATENCY: 164.17 cycles
LLC RQ	ACCESS:    1031672	FORWARD:          0	MERGED:          0	TO_CACHE:    1031664
LLC WQ	ACCESS:     210188	FORWARD:          8	MERGED:          0	TO_CACHE:     210188
LLC PQ	ACCESS:     137705	FORWARD:          0	MERGED:          0	TO_CACHE:     137705

LLC Dense regions hint to LLC: 0

RAW hits: 1213911
Loads Generated: 41733040
Loads sent to L1D: 40519128
Stores Generated: 20857481
Stores sent to L1D: 20857481
Major fault: 0 Minor fault: 2472
Allocated PAGES: 2472
Completed 

DRAM Statistics
 CHANNEL 0
 RQ ROW_BUFFER_HIT:      38446  ROW_BUFFER_MISS:      68018
 DBUS_CONGESTED:         41
 WQ ROW_BUFFER_HIT:       4794  ROW_BUFFER_MISS:      54057  FULL:          0

 AVG_CONGESTED_CYCLE: 4
 All warmup complete: 2
Channel 0 Bank busy for read cycles: 0
Channel 0 Bank busy for write cycles: 0
Channel 0
Rank 0
0banks busy for read cycles: 512965024
0banks busy for write cycles: 15382
1banks busy for read cycles: 3553277
1banks busy for write cycles: 2014439
2banks busy for read cycles: 477241
2banks busy for write cycles: 409549
3banks busy for read cycles: 256174
3banks busy for write cycles: 182092
4banks busy for read cycles: 206478
4banks busy for write cycles: 147252
5banks busy for read cycles: 163949
5banks busy for write cycles: 131168
6banks busy for read cycles: 151605
6banks busy for write cycles: 136136
7banks busy for read cycles: 163668
7banks busy for write cycles: 163185
8banks busy for read cycles: 397760
8banks busy for write cycles: 408646

CPU 0 Branch Prediction Accuracy: 99.773% MPKI: 0.39801 Average ROB Occupancy at Mispredict: 36.1684
Branch types
NOT_BRANCH: 164926668 82.4633%
BRANCH_DIRECT_JUMP: 1790889 0.895444%
BRANCH_INDIRECT: 9233189 4.61659%
BRANCH_CONDITIONAL: 17640059 8.82003%
BRANCH_DIRECT_CALL: 2729399 1.3647%
BRANCH_INDIRECT_CALL: 475210 0.237605%
BRANCH_RETURN: 3204589 1.60229%
BRANCH_OTHER: 0 0%

DRAM PAGES: 1048576
Allocated PAGES: 2472
