
*** ChampSim Multicore Out-of-Order Simulator ***

Warmup Instructions: 50000000
Simulation Instructions: 200000000
Number of CPUs: 1
LLC sets: 2048
LLC ways: 16
Off-chip DRAM Size: 4096 MB Channels: 1 Width: 64-bit Data Rate: 6400 MT/s
CPU 0 runs traces/spec2k17/server_038.champsimtrace.xz
.xz
BTB has LRU replacement policy
ITLB has LRU replacement policy
DTLB has LRU replacement policy
STLB has LRU replacement policy
L1I has LRU replacement policy
L1D has LRU replacement policy
Initialize SRRIP state for L2C
Initialize DRRIP state for LLC
Heartbeat CPU 0 instructions: 10000000 cycles: 2795733 heartbeat IPC: 3.57688 cumulative IPC: 3.57688 (Simulation time: 0 hr 0 min 23 sec) 
Heartbeat CPU 0 instructions: 20000002 cycles: 5599793 heartbeat IPC: 3.56626 cumulative IPC: 3.57156 (Simulation time: 0 hr 0 min 45 sec) 
Heartbeat CPU 0 instructions: 30000003 cycles: 8406033 heartbeat IPC: 3.56349 cumulative IPC: 3.56887 (Simulation time: 0 hr 1 min 6 sec) 
Heartbeat CPU 0 instructions: 40000001 cycles: 11213628 heartbeat IPC: 3.56177 cumulative IPC: 3.56709 (Simulation time: 0 hr 1 min 28 sec) 
Heartbeat CPU 0 instructions: 50000001 cycles: 14022208 heartbeat IPC: 3.56052 cumulative IPC: 3.56577 (Simulation time: 0 hr 1 min 51 sec) 

Warmup complete CPU 0 instructions: 50000001 cycles: 14022208 (Simulation time: 0 hr 1 min 51 sec) 

Heartbeat CPU 0 instructions: 60000000 cycles: 34181668 heartbeat IPC: 0.496045 cumulative IPC: 0.496045 (Simulation time: 0 hr 2 min 27 sec) 
Heartbeat CPU 0 instructions: 70000000 cycles: 54150972 heartbeat IPC: 0.500769 cumulative IPC: 0.498396 (Simulation time: 0 hr 3 min 3 sec) 
Heartbeat CPU 0 instructions: 80000000 cycles: 74112793 heartbeat IPC: 0.500956 cumulative IPC: 0.499246 (Simulation time: 0 hr 3 min 38 sec) 
Heartbeat CPU 0 instructions: 90000001 cycles: 94103253 heartbeat IPC: 0.500239 cumulative IPC: 0.499494 (Simulation time: 0 hr 4 min 13 sec) 
Heartbeat CPU 0 instructions: 100000002 cycles: 114079996 heartbeat IPC: 0.500582 cumulative IPC: 0.499711 (Simulation time: 0 hr 4 min 49 sec) 
*** Reached end of trace for Core: 0 Repeating trace: traces/spec2k17/server_038.champsimtrace.xz
Heartbeat CPU 0 instructions: 110000000 cycles: 134182003 heartbeat IPC: 0.497463 cumulative IPC: 0.499335 (Simulation time: 0 hr 5 min 24 sec) 
Heartbeat CPU 0 instructions: 120000003 cycles: 154226512 heartbeat IPC: 0.49889 cumulative IPC: 0.499271 (Simulation time: 0 hr 6 min 0 sec) 
Heartbeat CPU 0 instructions: 130000001 cycles: 174202977 heartbeat IPC: 0.500589 cumulative IPC: 0.499436 (Simulation time: 0 hr 6 min 36 sec) 
Heartbeat CPU 0 instructions: 140000001 cycles: 194185024 heartbeat IPC: 0.500449 cumulative IPC: 0.499548 (Simulation time: 0 hr 7 min 11 sec) 
Heartbeat CPU 0 instructions: 150000002 cycles: 214165818 heartbeat IPC: 0.500481 cumulative IPC: 0.499641 (Simulation time: 0 hr 7 min 47 sec) 
Heartbeat CPU 0 instructions: 160000000 cycles: 234199337 heartbeat IPC: 0.499163 cumulative IPC: 0.499598 (Simulation time: 0 hr 8 min 22 sec) 
Heartbeat CPU 0 instructions: 170000002 cycles: 254124367 heartbeat IPC: 0.501881 cumulative IPC: 0.499787 (Simulation time: 0 hr 8 min 58 sec) 
Heartbeat CPU 0 instructions: 180000000 cycles: 274043754 heartbeat IPC: 0.502023 cumulative IPC: 0.499959 (Simulation time: 0 hr 9 min 32 sec) 
Heartbeat CPU 0 instructions: 190000002 cycles: 293976697 heartbeat IPC: 0.501682 cumulative IPC: 0.500081 (Simulation time: 0 hr 10 min 8 sec) 
Heartbeat CPU 0 instructions: 200000001 cycles: 313907925 heartbeat IPC: 0.501725 cumulative IPC: 0.500191 (Simulation time: 0 hr 10 min 42 sec) 
*** Reached end of trace for Core: 0 Repeating trace: traces/spec2k17/server_038.champsimtrace.xz
Heartbeat CPU 0 instructions: 210000003 cycles: 333978434 heartbeat IPC: 0.498244 cumulative IPC: 0.500068 (Simulation time: 0 hr 11 min 21 sec) 
Heartbeat CPU 0 instructions: 220000000 cycles: 354028161 heartbeat IPC: 0.49876 cumulative IPC: 0.499991 (Simulation time: 0 hr 11 min 59 sec) 
Heartbeat CPU 0 instructions: 230000003 cycles: 373961457 heartbeat IPC: 0.501673 cumulative IPC: 0.500084 (Simulation time: 0 hr 12 min 36 sec) 
Heartbeat CPU 0 instructions: 240000001 cycles: 393961947 heartbeat IPC: 0.499988 cumulative IPC: 0.500079 (Simulation time: 0 hr 13 min 14 sec) 
Heartbeat CPU 0 instructions: 250000001 cycles: 413940218 heartbeat IPC: 0.500544 cumulative IPC: 0.500103 (Simulation time: 0 hr 13 min 52 sec) 
Finished CPU 0 instructions: 200000000 cycles: 399918010 cumulative IPC: 0.500103 (Simulation time: 0 hr 13 min 52 sec) 

ChampSim completed all CPUs

Region of Interest Statistics

CPU 0 cumulative IPC: 0.500103 instructions: 200000000 cycles: 399918010
ITLB TOTAL     ACCESS:   35176055  HIT:   32683344  MISS:    2492711  HIT %:    92.9136  MISS %:    7.08639   MPKI: 12.4636
ITLB LOAD TRANSLATION ACCESS:   35176055  HIT:   32683344  MISS:    2492711  HIT %:    92.9136  MISS %:    7.08639   MPKI: 12.4636
ITLB PREFETCH  REQUESTED:          0  ISSUED:          0  USEFUL:          0  USELESS:          0
ITLB USEFUL LOAD PREFETCHES:          0 PREFETCH ISSUED TO LOWER LEVEL:          0  ACCURACY: -nan
ITLB TIMELY PREFETCHES:          0 LATE PREFETCHES: 0 DROPPED PREFETCHES: 0
ITLB PREFETCHES SAME FILL-ORIGIN LEVEL: 0 DIFFERENT FILL-ORIGIN LEVEL: 0
ITLB AVERAGE MISS LATENCY: 9.01657 cycles
ITLB RQ	ACCESS:   41440671	FORWARD:          0	MERGED:    5453420	TO_CACHE:   35987251

DTLB TOTAL     ACCESS:   40163089  HIT:   38166563  MISS:    1996526  HIT %:     95.029  MISS %:    4.97105   MPKI: 9.98263
DTLB LOAD TRANSLATION ACCESS:   40163089  HIT:   38166563  MISS:    1996526  HIT %:     95.029  MISS %:    4.97105   MPKI: 9.98263
DTLB PREFETCH  REQUESTED:          0  ISSUED:          0  USEFUL:          0  USELESS:          0
DTLB USEFUL LOAD PREFETCHES:          0 PREFETCH ISSUED TO LOWER LEVEL:          0  ACCURACY: -nan
DTLB TIMELY PREFETCHES:          0 LATE PREFETCHES: 0 DROPPED PREFETCHES: 0
DTLB PREFETCHES SAME FILL-ORIGIN LEVEL: 0 DIFFERENT FILL-ORIGIN LEVEL: 0
DTLB AVERAGE MISS LATENCY: 9.01215 cycles
DTLB RQ	ACCESS:   55972596	FORWARD:          0	MERGED:   15674491	TO_CACHE:   40298105

STLB TOTAL     ACCESS:   13362134  HIT:   13338960  MISS:      23174  HIT %:    99.8266  MISS %:    0.17343   MPKI: 0.11587
STLB LOAD TRANSLATION ACCESS:    4489237  HIT:    4466399  MISS:      22838  HIT %:    99.4913  MISS %:   0.508728   MPKI: 0.11419
STLB TRANSLATION FROM L1D PREFETCHER ACCESS:    8872897  HIT:    8872561  MISS:        336  HIT %:    99.9962  MISS %: 0.00378681   MPKI: 0.00168
STLB PREFETCH  REQUESTED:          0  ISSUED:          0  USEFUL:        281  USELESS:         51
STLB USEFUL LOAD PREFETCHES:        281 PREFETCH ISSUED TO LOWER LEVEL:          0  ACCURACY: inf
STLB TIMELY PREFETCHES:        281 LATE PREFETCHES: 8 DROPPED PREFETCHES: 218460
STLB PREFETCHES SAME FILL-ORIGIN LEVEL: 0 DIFFERENT FILL-ORIGIN LEVEL: 0
STLB AVERAGE MISS LATENCY: 57.3329 cycles
STLB RQ	ACCESS:   16099230	FORWARD:          0	MERGED:    2518532	TO_CACHE:   13580698

STLB Hit, L1D data hit: 0
STLB Hit, L2C data hit: 0
STLB Hit, LLC data hit: 0
STLB Hit, LLC data miss: 0
STLB STLB hints to L2: 0
L1D TOTAL     ACCESS:   66674748  HIT:   64715331  MISS:    1959417  HIT %:    97.0612  MISS %:    2.93877   MPKI: 9.79708
L1D LOAD      ACCESS:   31362160  HIT:   29965758  MISS:    1396402  HIT %:    95.5475  MISS %:    4.45251   MPKI: 6.98201
L1D RFO       ACCESS:   24215415  HIT:   23957758  MISS:     257657  HIT %:     98.936  MISS %:    1.06402   MPKI: 1.28828
L1D PREFETCH  ACCESS:   11097173  HIT:   10791815  MISS:     305358  HIT %:    97.2483  MISS %:    2.75167   MPKI: 1.52679
AGUS PREFETCH L1 MISS: 0
L1D PREFETCH  REQUESTED:   25218957  ISSUED:   25218723  USEFUL:     117086  USELESS:     188217
L1D USEFUL LOAD PREFETCHES:     117086 PREFETCH ISSUED TO LOWER LEVEL:     394292  ACCURACY: 29.6953
L1D TIMELY PREFETCHES:     117086 LATE PREFETCHES: 83223 DROPPED PREFETCHES: 241607
L1D PREFETCHES SAME FILL-ORIGIN LEVEL: 394292 DIFFERENT FILL-ORIGIN LEVEL: 0
L1D AVERAGE MISS LATENCY: 1.16527e+07 cycles
L1D RQ	ACCESS:   45988555	FORWARD:          0	MERGED:   14270489	TO_CACHE:   31461756
L1D WQ	ACCESS:   24697059	FORWARD:     304893	MERGED:     186219	TO_CACHE:   24510840
L1D PQ	ACCESS:   13608730	FORWARD:          0	MERGED:    1950154	TO_CACHE:   11609993

L1D UNIQUE REGIONS ACCESSED: 0
L1D REGIONS CONFLICTS: 0
L1D Cross Page Prefetch Requests: 8478691
L1D Same Page Prefetch Requests: 7454117
L1D ROI Sum of L1D PQ occupancy: 164642674
L1D PREFETCHES PUSHED FROM L2C: 0
L1I TOTAL     ACCESS:   37495460  HIT:   22056968  MISS:   15438492  HIT %:    58.8257  MISS %:    41.1743   MPKI: 77.1925
L1I LOAD      ACCESS:   37495460  HIT:   22056968  MISS:   15438492  HIT %:    58.8257  MISS %:    41.1743   MPKI: 77.1925
L1I PREFETCH  REQUESTED:          0  ISSUED:          0  USEFUL:          0  USELESS:          0
L1I USEFUL LOAD PREFETCHES:          0 PREFETCH ISSUED TO LOWER LEVEL:          0  ACCURACY: -nan
L1I TIMELY PREFETCHES:          0 LATE PREFETCHES: 0 DROPPED PREFETCHES: 0
L1I PREFETCHES SAME FILL-ORIGIN LEVEL: 0 DIFFERENT FILL-ORIGIN LEVEL: 0
L1I AVERAGE MISS LATENCY: 14.1342 cycles
L1I RQ	ACCESS:   62463437	FORWARD:          0	MERGED:   21022766	TO_CACHE:   41440671

BTB TOTAL     ACCESS:   28064304  HIT:   24482603  MISS:    3581701  HIT %:    87.2375  MISS %:    12.7625   MPKI: 17.9085
BTB BRANCH_DIRECT_JUMP	ACCESS:    2068715  HIT:    1958904  MISS:     109811
BTB BRANCH_INDIRECT	ACCESS:   12589489  HIT:   11340070  MISS:    1249419
BTB BRANCH_CONDITIONAL	ACCESS:    3946651  HIT:    3830860  MISS:     115791
BTB BRANCH_DIRECT_CALL	ACCESS:    3834256  HIT:    3580645  MISS:     253611
BTB BRANCH_INDIRECT_CALL	ACCESS:     895479  HIT:     719752  MISS:     175727
BTB BRANCH_RETURN	ACCESS:    4729714  HIT:    3052372  MISS:    1677342
BTB BRANCH_OTHER ACCESS:          0  HIT:          0  MISS:          0

L2C TOTAL     ACCESS:   18718373  HIT:   18054533  MISS:     663840  HIT %:    96.4535  MISS %:    3.54646   MPKI: 3.3192
L2C LOAD      ACCESS:   16751615  HIT:   16318357  MISS:     433258  HIT %:    97.4136  MISS %:    2.58637   MPKI: 2.16629
L2C DATA LOAD MPKI: 2.04104
L2C INSTRUCTION LOAD MPKI: 0.12525
L2C RFO       ACCESS:     251946  HIT:     149488  MISS:     102458  HIT %:    59.3333  MISS %:    40.6667   MPKI: 0.51229
L2C PREFETCH  ACCESS:     394287  HIT:     310345  MISS:      83942  HIT %:    78.7104  MISS %:    21.2896   MPKI: 0.41971
AGUS PREFETCH L1 MISS: 0
L2C DATA PREFETCH MPKI: 0.41971
L2C INSTRUCTION PREFETCH MPKI: 0
L2C WRITEBACK ACCESS:     911084  HIT:     895920  MISS:      15164  HIT %:    98.3356  MISS %:    1.66439   MPKI: 0.07582
L2C LOAD TRANSLATION ACCESS:      31531  HIT:      12266  MISS:      19265  HIT %:    38.9014  MISS %:    61.0986   MPKI: 0.096325
L2C TRANSLATION FROM L1D PREFETCHER ACCESS:     377910  HIT:     368157  MISS:       9753  HIT %:    97.4192  MISS %:    2.58077   MPKI: 0.048765
L2C PREFETCH  REQUESTED:          0  ISSUED:          0  USEFUL:       9328  USELESS:      83856
L2C USEFUL LOAD PREFETCHES:       9328 PREFETCH ISSUED TO LOWER LEVEL:      83942  ACCURACY: 11.1124
L2C TIMELY PREFETCHES:       9328 LATE PREFETCHES: 0 DROPPED PREFETCHES: 0
L2C PREFETCHES SAME FILL-ORIGIN LEVEL: 0 DIFFERENT FILL-ORIGIN LEVEL: 0
L2C AVERAGE MISS LATENCY: 49.4544 cycles
L2C RQ	ACCESS:   17413058	FORWARD:          0	MERGED:          0	TO_CACHE:   17413002
L2C WQ	ACCESS:     911084	FORWARD:         61	MERGED:          0	TO_CACHE:     911084
L2C PQ	ACCESS:     394292	FORWARD:          0	MERGED:          0	TO_CACHE:     394287

L2C Instructions Evicting Data 22272
L2C Translations Evicting Data 26217
L2C Data Evicting Data 547415
L2C Instructions Evicting Instructions 1572
L2C Translations Evicting Instructions 1304
L2C Data Evicting Instructions 21445
L2C Instructions Evicting Translations 1206
L2C Translations Evicting Translations 1497
L2C Data Evicting Translations 25748
L2C Dense regions hint from L2: 0
PSCL5 TOTAL     ACCESS:     238891  HIT:     238891  MISS:          0  HIT %:        100  MISS %:          0   MPKI: 0
PSCL5 LOAD TRANSLATION ACCESS:      22831  HIT:      22831  MISS:          0  HIT %:        100  MISS %:          0   MPKI: 0
PSCL5 TRANSLATION FROM L1D PREFETCHER ACCESS:     216060  HIT:     216060  MISS:          0  HIT %:        100  MISS %:          0   MPKI: 0
PSCL5 PREFETCH  REQUESTED:          0  ISSUED:          0  USEFUL:          0  USELESS:          0
PSCL5 USEFUL LOAD PREFETCHES:          0 PREFETCH ISSUED TO LOWER LEVEL:          0  ACCURACY: -nan
PSCL5 TIMELY PREFETCHES:          0 LATE PREFETCHES: 0 DROPPED PREFETCHES: 0
PSCL5 PREFETCHES SAME FILL-ORIGIN LEVEL: 0 DIFFERENT FILL-ORIGIN LEVEL: 0

PSCL4 TOTAL     ACCESS:     192268  HIT:     192258  MISS:         10  HIT %:    99.9948  MISS %: 0.00520107   MPKI: 5e-05
PSCL4 LOAD TRANSLATION ACCESS:      22425  HIT:      22415  MISS:         10  HIT %:    99.9554  MISS %:  0.0445931   MPKI: 5e-05
PSCL4 TRANSLATION FROM L1D PREFETCHER ACCESS:     169843  HIT:     169843  MISS:          0  HIT %:        100  MISS %:          0   MPKI: 0
PSCL4 PREFETCH  REQUESTED:          0  ISSUED:          0  USEFUL:          0  USELESS:          0
PSCL4 USEFUL LOAD PREFETCHES:          0 PREFETCH ISSUED TO LOWER LEVEL:          0  ACCURACY: -nan
PSCL4 TIMELY PREFETCHES:          0 LATE PREFETCHES: 0 DROPPED PREFETCHES: 0
PSCL4 PREFETCHES SAME FILL-ORIGIN LEVEL: 0 DIFFERENT FILL-ORIGIN LEVEL: 0

PSCL3 TOTAL     ACCESS:     186307  HIT:     186223  MISS:         84  HIT %:    99.9549  MISS %:  0.0450869   MPKI: 0.00042
PSCL3 LOAD TRANSLATION ACCESS:      22745  HIT:      22661  MISS:         84  HIT %:    99.6307  MISS %:   0.369312   MPKI: 0.00042
PSCL3 TRANSLATION FROM L1D PREFETCHER ACCESS:     163562  HIT:     163562  MISS:          0  HIT %:        100  MISS %:          0   MPKI: 0
PSCL3 PREFETCH  REQUESTED:          0  ISSUED:          0  USEFUL:          0  USELESS:          0
PSCL3 USEFUL LOAD PREFETCHES:          0 PREFETCH ISSUED TO LOWER LEVEL:          0  ACCURACY: -nan
PSCL3 TIMELY PREFETCHES:          0 LATE PREFETCHES: 0 DROPPED PREFETCHES: 0
PSCL3 PREFETCHES SAME FILL-ORIGIN LEVEL: 0 DIFFERENT FILL-ORIGIN LEVEL: 0

PSCL2 TOTAL     ACCESS:      34013  HIT:      25282  MISS:       8731  HIT %:    74.3304  MISS %:    25.6696   MPKI: 0.043655
PSCL2 LOAD TRANSLATION ACCESS:      22932  HIT:      14201  MISS:       8731  HIT %:    61.9266  MISS %:    38.0734   MPKI: 0.043655
PSCL2 TRANSLATION FROM L1D PREFETCHER ACCESS:      11081  HIT:      11081  MISS:          0  HIT %:        100  MISS %:          0   MPKI: 0
PSCL2 PREFETCH  REQUESTED:          0  ISSUED:          0  USEFUL:          0  USELESS:          0
PSCL2 USEFUL LOAD PREFETCHES:          0 PREFETCH ISSUED TO LOWER LEVEL:          0  ACCURACY: -nan
PSCL2 TIMELY PREFETCHES:          0 LATE PREFETCHES: 0 DROPPED PREFETCHES: 0
PSCL2 PREFETCHES SAME FILL-ORIGIN LEVEL: 0 DIFFERENT FILL-ORIGIN LEVEL: 0

LLC TOTAL     ACCESS:     933767  HIT:     849053  MISS:      84714  HIT %:    90.9277  MISS %:    9.07228   MPKI: 0.42357
LLC LOAD      ACCESS:     433258  HIT:     375435  MISS:      57823  HIT %:    86.6539  MISS %:    13.3461   MPKI: 0.289115
LLC RFO       ACCESS:     102458  HIT:      82803  MISS:      19655  HIT %:    80.8165  MISS %:    19.1835   MPKI: 0.098275
LLC PREFETCH  ACCESS:      83942  HIT:      78361  MISS:       5581  HIT %:    93.3514  MISS %:    6.64864   MPKI: 0.027905
AGUS PREFETCH L1 MISS: 0
LLC WRITEBACK ACCESS:     285091  HIT:     284368  MISS:        723  HIT %:    99.7464  MISS %:   0.253603   MPKI: 0.003615
LLC LOAD TRANSLATION ACCESS:      19265  HIT:      18858  MISS:        407  HIT %:    97.8874  MISS %:    2.11264   MPKI: 0.002035
LLC TRANSLATION FROM L1D PREFETCHER ACCESS:       9753  HIT:       9228  MISS:        525  HIT %:     94.617  MISS %:    5.38296   MPKI: 0.002625
LLC PREFETCH  REQUESTED:          0  ISSUED:          0  USEFUL:        598  USELESS:       3077
LLC USEFUL LOAD PREFETCHES:        598 PREFETCH ISSUED TO LOWER LEVEL:       5581  ACCURACY: 10.7149
LLC TIMELY PREFETCHES:        598 LATE PREFETCHES: 0 DROPPED PREFETCHES: 0
LLC PREFETCHES SAME FILL-ORIGIN LEVEL: 0 DIFFERENT FILL-ORIGIN LEVEL: 0
LLC AVERAGE MISS LATENCY: 157.749 cycles
LLC RQ	ACCESS:     564734	FORWARD:          0	MERGED:          0	TO_CACHE:     564734
LLC WQ	ACCESS:     285091	FORWARD:          0	MERGED:          0	TO_CACHE:     285091
LLC PQ	ACCESS:      83942	FORWARD:          0	MERGED:          0	TO_CACHE:      83942

LLC Dense regions hint to LLC: 0

RAW hits: 2111199
Loads Generated: 48099756
Loads sent to L1D: 45988555
Stores Generated: 24697058
Stores sent to L1D: 24697059
Major fault: 0 Minor fault: 5748
Allocated PAGES: 5748
Completed 

DRAM Statistics
 CHANNEL 0
 RQ ROW_BUFFER_HIT:      20341  ROW_BUFFER_MISS:      63647
 DBUS_CONGESTED:         13
 WQ ROW_BUFFER_HIT:       3726  ROW_BUFFER_MISS:      29184  FULL:          0

 AVG_CONGESTED_CYCLE: 6
 All warmup complete: 2
Channel 0 Bank busy for read cycles: 0
Channel 0 Bank busy for write cycles: 0
Channel 0
Rank 0
0banks busy for read cycles: 387124882
0banks busy for write cycles: 22785
1banks busy for read cycles: 7319862
1banks busy for write cycles: 3445967
2banks busy for read cycles: 854966
2banks busy for write cycles: 620592
3banks busy for read cycles: 141495
3banks busy for write cycles: 84565
4banks busy for read cycles: 50197
4banks busy for write cycles: 55418
5banks busy for read cycles: 28178
5banks busy for write cycles: 23405
6banks busy for read cycles: 31476
6banks busy for write cycles: 14234
7banks busy for read cycles: 36474
7banks busy for write cycles: 13638
8banks busy for read cycles: 41979
8banks busy for write cycles: 7898

CPU 0 Branch Prediction Accuracy: 99.9778% MPKI: 0.038155 Average ROB Occupancy at Mispredict: 24.112
Branch types
NOT_BRANCH: 165656550 82.8283%
BRANCH_DIRECT_JUMP: 2068715 1.03436%
BRANCH_INDIRECT: 12589489 6.29474%
BRANCH_CONDITIONAL: 10225817 5.11291%
BRANCH_DIRECT_CALL: 3834256 1.91713%
BRANCH_INDIRECT_CALL: 895479 0.44774%
BRANCH_RETURN: 4729714 2.36486%
BRANCH_OTHER: 0 0%

DRAM PAGES: 1048576
Allocated PAGES: 5748
