
*** ChampSim Multicore Out-of-Order Simulator ***

Warmup Instructions: 50000000
Simulation Instructions: 200000000
Number of CPUs: 1
LLC sets: 2048
LLC ways: 16
Off-chip DRAM Size: 4096 MB Channels: 1 Width: 64-bit Data Rate: 6400 MT/s
CPU 0 runs traces/spec2k17/server_034.champsimtrace.xz
.xz
BTB has LRU replacement policy
ITLB has LRU replacement policy
DTLB has LRU replacement policy
STLB has LRU replacement policy
L1I has LRU replacement policy
L1D has LRU replacement policy
Initialize SRRIP state for L2C
Initialize DRRIP state for LLC
Heartbeat CPU 0 instructions: 10000001 cycles: 2815983 heartbeat IPC: 3.55116 cumulative IPC: 3.55116 (Simulation time: 0 hr 0 min 20 sec) 
Heartbeat CPU 0 instructions: 20000003 cycles: 5631138 heartbeat IPC: 3.5522 cumulative IPC: 3.55168 (Simulation time: 0 hr 0 min 41 sec) 
Heartbeat CPU 0 instructions: 30000001 cycles: 8456015 heartbeat IPC: 3.53998 cumulative IPC: 3.54777 (Simulation time: 0 hr 1 min 1 sec) 
Heartbeat CPU 0 instructions: 40000002 cycles: 11284375 heartbeat IPC: 3.53562 cumulative IPC: 3.54472 (Simulation time: 0 hr 1 min 21 sec) 
Heartbeat CPU 0 instructions: 50000001 cycles: 14113912 heartbeat IPC: 3.53415 cumulative IPC: 3.5426 (Simulation time: 0 hr 1 min 42 sec) 

Warmup complete CPU 0 instructions: 50000001 cycles: 14113912 (Simulation time: 0 hr 1 min 42 sec) 

Heartbeat CPU 0 instructions: 60000003 cycles: 40046993 heartbeat IPC: 0.385608 cumulative IPC: 0.385608 (Simulation time: 0 hr 2 min 19 sec) 
Heartbeat CPU 0 instructions: 70000000 cycles: 65438952 heartbeat IPC: 0.393825 cumulative IPC: 0.389673 (Simulation time: 0 hr 2 min 55 sec) 
Heartbeat CPU 0 instructions: 80000002 cycles: 91408622 heartbeat IPC: 0.385065 cumulative IPC: 0.388125 (Simulation time: 0 hr 3 min 31 sec) 
Heartbeat CPU 0 instructions: 90000003 cycles: 117328919 heartbeat IPC: 0.385798 cumulative IPC: 0.387541 (Simulation time: 0 hr 4 min 6 sec) 
Heartbeat CPU 0 instructions: 100000000 cycles: 143233432 heartbeat IPC: 0.386033 cumulative IPC: 0.387238 (Simulation time: 0 hr 4 min 42 sec) 
*** Reached end of trace for Core: 0 Repeating trace: traces/spec2k17/server_034.champsimtrace.xz
Heartbeat CPU 0 instructions: 110000000 cycles: 169177759 heartbeat IPC: 0.385441 cumulative IPC: 0.386937 (Simulation time: 0 hr 5 min 18 sec) 
Heartbeat CPU 0 instructions: 120000001 cycles: 194553973 heartbeat IPC: 0.39407 cumulative IPC: 0.38794 (Simulation time: 0 hr 5 min 54 sec) 
Heartbeat CPU 0 instructions: 130000000 cycles: 220692276 heartbeat IPC: 0.38258 cumulative IPC: 0.387262 (Simulation time: 0 hr 6 min 30 sec) 
Heartbeat CPU 0 instructions: 140000001 cycles: 246986194 heartbeat IPC: 0.380316 cumulative IPC: 0.386478 (Simulation time: 0 hr 7 min 6 sec) 
Heartbeat CPU 0 instructions: 150000003 cycles: 273059005 heartbeat IPC: 0.383541 cumulative IPC: 0.386182 (Simulation time: 0 hr 7 min 42 sec) 
Heartbeat CPU 0 instructions: 160000000 cycles: 298891726 heartbeat IPC: 0.387106 cumulative IPC: 0.386266 (Simulation time: 0 hr 8 min 18 sec) 
Heartbeat CPU 0 instructions: 170000001 cycles: 324712497 heartbeat IPC: 0.387285 cumulative IPC: 0.386351 (Simulation time: 0 hr 8 min 54 sec) 
Heartbeat CPU 0 instructions: 180000002 cycles: 349993043 heartbeat IPC: 0.395561 cumulative IPC: 0.387044 (Simulation time: 0 hr 9 min 30 sec) 
Heartbeat CPU 0 instructions: 190000002 cycles: 375920746 heartbeat IPC: 0.385688 cumulative IPC: 0.386947 (Simulation time: 0 hr 10 min 6 sec) 
Heartbeat CPU 0 instructions: 200000000 cycles: 401830489 heartbeat IPC: 0.385955 cumulative IPC: 0.386881 (Simulation time: 0 hr 10 min 41 sec) 
*** Reached end of trace for Core: 0 Repeating trace: traces/spec2k17/server_034.champsimtrace.xz
Heartbeat CPU 0 instructions: 210000000 cycles: 427747516 heartbeat IPC: 0.385847 cumulative IPC: 0.386816 (Simulation time: 0 hr 11 min 17 sec) 
Heartbeat CPU 0 instructions: 220000000 cycles: 453556314 heartbeat IPC: 0.387465 cumulative IPC: 0.386854 (Simulation time: 0 hr 11 min 54 sec) 
Heartbeat CPU 0 instructions: 230000000 cycles: 479047355 heartbeat IPC: 0.392295 cumulative IPC: 0.387152 (Simulation time: 0 hr 12 min 30 sec) 
Heartbeat CPU 0 instructions: 240000000 cycles: 505343953 heartbeat IPC: 0.380277 cumulative IPC: 0.386784 (Simulation time: 0 hr 13 min 7 sec) 
Heartbeat CPU 0 instructions: 250000001 cycles: 531520272 heartbeat IPC: 0.382025 cumulative IPC: 0.386543 (Simulation time: 0 hr 13 min 43 sec) 
Finished CPU 0 instructions: 200000000 cycles: 517406360 cumulative IPC: 0.386543 (Simulation time: 0 hr 13 min 43 sec) 

ChampSim completed all CPUs

Region of Interest Statistics

CPU 0 cumulative IPC: 0.386543 instructions: 200000000 cycles: 517406360
ITLB TOTAL     ACCESS:   35661559  HIT:   33629208  MISS:    2032351  HIT %:     94.301  MISS %:      5.699   MPKI: 10.1618
ITLB LOAD TRANSLATION ACCESS:   35661559  HIT:   33629208  MISS:    2032351  HIT %:     94.301  MISS %:      5.699   MPKI: 10.1618
ITLB PREFETCH  REQUESTED:          0  ISSUED:          0  USEFUL:          0  USELESS:          0
ITLB USEFUL LOAD PREFETCHES:          0 PREFETCH ISSUED TO LOWER LEVEL:          0  ACCURACY: -nan
ITLB TIMELY PREFETCHES:          0 LATE PREFETCHES: 0 DROPPED PREFETCHES: 0
ITLB PREFETCHES SAME FILL-ORIGIN LEVEL: 0 DIFFERENT FILL-ORIGIN LEVEL: 0
ITLB AVERAGE MISS LATENCY: 9.03121 cycles
ITLB RQ	ACCESS:   41325339	FORWARD:          0	MERGED:    5211063	TO_CACHE:   36114276

DTLB TOTAL     ACCESS:   39385541  HIT:   37798065  MISS:    1587476  HIT %:    95.9694  MISS %:    4.03061   MPKI: 7.93738
DTLB LOAD TRANSLATION ACCESS:   39385541  HIT:   37798065  MISS:    1587476  HIT %:    95.9694  MISS %:    4.03061   MPKI: 7.93738
DTLB PREFETCH  REQUESTED:          0  ISSUED:          0  USEFUL:          0  USELESS:          0
DTLB USEFUL LOAD PREFETCHES:          0 PREFETCH ISSUED TO LOWER LEVEL:          0  ACCURACY: -nan
DTLB TIMELY PREFETCHES:          0 LATE PREFETCHES: 0 DROPPED PREFETCHES: 0
DTLB PREFETCHES SAME FILL-ORIGIN LEVEL: 0 DIFFERENT FILL-ORIGIN LEVEL: 0
DTLB AVERAGE MISS LATENCY: 8.52865 cycles
DTLB RQ	ACCESS:   54982488	FORWARD:          0	MERGED:   15514295	TO_CACHE:   39468193

STLB TOTAL     ACCESS:   15574438  HIT:   15571695  MISS:       2743  HIT %:    99.9824  MISS %:  0.0176122   MPKI: 0.013715
STLB LOAD TRANSLATION ACCESS:    3619827  HIT:    3617293  MISS:       2534  HIT %:      99.93  MISS %:  0.0700033   MPKI: 0.01267
STLB TRANSLATION FROM L1D PREFETCHER ACCESS:   11954611  HIT:   11954402  MISS:        209  HIT %:    99.9983  MISS %: 0.00174828   MPKI: 0.001045
STLB PREFETCH  REQUESTED:          0  ISSUED:          0  USEFUL:        196  USELESS:         10
STLB USEFUL LOAD PREFETCHES:        196 PREFETCH ISSUED TO LOWER LEVEL:          0  ACCURACY: inf
STLB TIMELY PREFETCHES:        196 LATE PREFETCHES: 0 DROPPED PREFETCHES: 189482
STLB PREFETCHES SAME FILL-ORIGIN LEVEL: 0 DIFFERENT FILL-ORIGIN LEVEL: 0
STLB AVERAGE MISS LATENCY: 33.9923 cycles
STLB RQ	ACCESS:   18685756	FORWARD:          0	MERGED:    2921768	TO_CACHE:   15763988

STLB Hit, L1D data hit: 0
STLB Hit, L2C data hit: 0
STLB Hit, LLC data hit: 0
STLB Hit, LLC data miss: 0
STLB STLB hints to L2: 0
L1D TOTAL     ACCESS:   68922177  HIT:   65972110  MISS:    2950067  HIT %:    95.7197  MISS %:    4.28029   MPKI: 14.7503
L1D LOAD      ACCESS:   30238650  HIT:   28350110  MISS:    1888540  HIT %:    93.7545  MISS %:    6.24545   MPKI: 9.4427
L1D RFO       ACCESS:   24344649  HIT:   23948459  MISS:     396190  HIT %:    98.3726  MISS %:    1.62742   MPKI: 1.98095
L1D PREFETCH  ACCESS:   14338878  HIT:   13673541  MISS:     665337  HIT %:    95.3599  MISS %:    4.64009   MPKI: 3.32668
AGUS PREFETCH L1 MISS: 0
L1D PREFETCH  REQUESTED:   32554109  ISSUED:   32554103  USEFUL:     389786  USELESS:     275520
L1D USEFUL LOAD PREFETCHES:     389786 PREFETCH ISSUED TO LOWER LEVEL:     913816  ACCURACY: 42.6548
L1D TIMELY PREFETCHES:     389786 LATE PREFETCHES: 247692 DROPPED PREFETCHES: 204295
L1D PREFETCHES SAME FILL-ORIGIN LEVEL: 913816 DIFFERENT FILL-ORIGIN LEVEL: 0
L1D AVERAGE MISS LATENCY: 2.51029e+07 cycles
L1D RQ	ACCESS:   43339558	FORWARD:          0	MERGED:   12718380	TO_CACHE:   30267528
L1D WQ	ACCESS:   24968545	FORWARD:     406474	MERGED:     253585	TO_CACHE:   24714960
L1D PQ	ACCESS:   17488174	FORWARD:          0	MERGED:    2369421	TO_CACHE:   15065929

L1D UNIQUE REGIONS ACCESSED: 0
L1D REGIONS CONFLICTS: 0
L1D Cross Page Prefetch Requests: 10504225
L1D Same Page Prefetch Requests: 9605327
L1D ROI Sum of L1D PQ occupancy: 208554867
L1D PREFETCHES PUSHED FROM L2C: 0
L1I TOTAL     ACCESS:   38737849  HIT:   26142760  MISS:   12595089  HIT %:    67.4863  MISS %:    32.5137   MPKI: 62.9754
L1I LOAD      ACCESS:   38737849  HIT:   26142760  MISS:   12595089  HIT %:    67.4863  MISS %:    32.5137   MPKI: 62.9754
L1I PREFETCH  REQUESTED:          0  ISSUED:          0  USEFUL:          0  USELESS:          0
L1I USEFUL LOAD PREFETCHES:          0 PREFETCH ISSUED TO LOWER LEVEL:          0  ACCURACY: -nan
L1I TIMELY PREFETCHES:          0 LATE PREFETCHES: 0 DROPPED PREFETCHES: 0
L1I PREFETCHES SAME FILL-ORIGIN LEVEL: 0 DIFFERENT FILL-ORIGIN LEVEL: 0
L1I AVERAGE MISS LATENCY: 14.2601 cycles
L1I RQ	ACCESS:   61101257	FORWARD:          0	MERGED:   19775918	TO_CACHE:   41325339

BTB TOTAL     ACCESS:   31187080  HIT:   22748972  MISS:    8438108  HIT %:    72.9436  MISS %:    27.0564   MPKI: 42.1905
BTB BRANCH_DIRECT_JUMP	ACCESS:    2936764  HIT:    2316190  MISS:     620574
BTB BRANCH_INDIRECT	ACCESS:   13065636  HIT:    9451143  MISS:    3614493
BTB BRANCH_CONDITIONAL	ACCESS:    5550027  HIT:    4880620  MISS:     669407
BTB BRANCH_DIRECT_CALL	ACCESS:    4007660  HIT:    3039316  MISS:     968344
BTB BRANCH_INDIRECT_CALL	ACCESS:     809679  HIT:     470392  MISS:     339287
BTB BRANCH_RETURN	ACCESS:    4817314  HIT:    2591311  MISS:    2226003
BTB BRANCH_OTHER ACCESS:          0  HIT:          0  MISS:          0

L2C TOTAL     ACCESS:   16834981  HIT:   16517439  MISS:     317542  HIT %:    98.1138  MISS %:     1.8862   MPKI: 1.58771
L2C LOAD      ACCESS:   14235932  HIT:   14003861  MISS:     232071  HIT %:    98.3698  MISS %:    1.63018   MPKI: 1.16036
L2C DATA LOAD MPKI: 0.74703
L2C INSTRUCTION LOAD MPKI: 0.413325
L2C RFO       ACCESS:     395401  HIT:     358833  MISS:      36568  HIT %:    90.7517  MISS %:    9.24833   MPKI: 0.18284
L2C PREFETCH  ACCESS:     913774  HIT:     882533  MISS:      31241  HIT %:    96.5811  MISS %:     3.4189   MPKI: 0.156205
AGUS PREFETCH L1 MISS: 0
L2C DATA PREFETCH MPKI: 0.156205
L2C INSTRUCTION PREFETCH MPKI: 0
L2C WRITEBACK ACCESS:     995932  HIT:     983562  MISS:      12370  HIT %:    98.7579  MISS %:    1.24205   MPKI: 0.06185
L2C LOAD TRANSLATION ACCESS:       2561  HIT:       1516  MISS:       1045  HIT %:    59.1956  MISS %:    40.8044   MPKI: 0.005225
L2C TRANSLATION FROM L1D PREFETCHER ACCESS:     291381  HIT:     287134  MISS:       4247  HIT %:    98.5425  MISS %:    1.45754   MPKI: 0.021235
L2C PREFETCH  REQUESTED:          0  ISSUED:          0  USEFUL:       6716  USELESS:      28476
L2C USEFUL LOAD PREFETCHES:       6716 PREFETCH ISSUED TO LOWER LEVEL:      31241  ACCURACY: 21.4974
L2C TIMELY PREFETCHES:       6716 LATE PREFETCHES: 0 DROPPED PREFETCHES: 0
L2C PREFETCHES SAME FILL-ORIGIN LEVEL: 0 DIFFERENT FILL-ORIGIN LEVEL: 0
L2C AVERAGE MISS LATENCY: 31.0393 cycles
L2C RQ	ACCESS:   14925283	FORWARD:          0	MERGED:          0	TO_CACHE:   14925275
L2C WQ	ACCESS:     995932	FORWARD:         50	MERGED:          0	TO_CACHE:     995932
L2C PQ	ACCESS:     913816	FORWARD:          0	MERGED:          0	TO_CACHE:     913774

L2C Instructions Evicting Data 28342
L2C Translations Evicting Data 4360
L2C Data Evicting Data 188130
L2C Instructions Evicting Instructions 53412
L2C Translations Evicting Instructions 883
L2C Data Evicting Instructions 25259
L2C Instructions Evicting Translations 911
L2C Translations Evicting Translations 49
L2C Data Evicting Translations 3826
L2C Dense regions hint from L2: 0
PSCL5 TOTAL     ACCESS:     187860  HIT:     187860  MISS:          0  HIT %:        100  MISS %:          0   MPKI: 0
PSCL5 LOAD TRANSLATION ACCESS:       2534  HIT:       2534  MISS:          0  HIT %:        100  MISS %:          0   MPKI: 0
PSCL5 TRANSLATION FROM L1D PREFETCHER ACCESS:     185326  HIT:     185326  MISS:          0  HIT %:        100  MISS %:          0   MPKI: 0
PSCL5 PREFETCH  REQUESTED:          0  ISSUED:          0  USEFUL:          0  USELESS:          0
PSCL5 USEFUL LOAD PREFETCHES:          0 PREFETCH ISSUED TO LOWER LEVEL:          0  ACCURACY: -nan
PSCL5 TIMELY PREFETCHES:          0 LATE PREFETCHES: 0 DROPPED PREFETCHES: 0
PSCL5 PREFETCHES SAME FILL-ORIGIN LEVEL: 0 DIFFERENT FILL-ORIGIN LEVEL: 0

PSCL4 TOTAL     ACCESS:      99995  HIT:      99994  MISS:          1  HIT %:     99.999  MISS %: 0.00100005   MPKI: 5e-06
PSCL4 LOAD TRANSLATION ACCESS:       1516  HIT:       1515  MISS:          1  HIT %:     99.934  MISS %:  0.0659631   MPKI: 5e-06
PSCL4 TRANSLATION FROM L1D PREFETCHER ACCESS:      98479  HIT:      98479  MISS:          0  HIT %:        100  MISS %:          0   MPKI: 0
PSCL4 PREFETCH  REQUESTED:          0  ISSUED:          0  USEFUL:          0  USELESS:          0
PSCL4 USEFUL LOAD PREFETCHES:          0 PREFETCH ISSUED TO LOWER LEVEL:          0  ACCURACY: -nan
PSCL4 TIMELY PREFETCHES:          0 LATE PREFETCHES: 0 DROPPED PREFETCHES: 0
PSCL4 PREFETCHES SAME FILL-ORIGIN LEVEL: 0 DIFFERENT FILL-ORIGIN LEVEL: 0

PSCL3 TOTAL     ACCESS:     139541  HIT:     139540  MISS:          1  HIT %:    99.9993  MISS %: 0.000716635   MPKI: 5e-06
PSCL3 LOAD TRANSLATION ACCESS:       2323  HIT:       2322  MISS:          1  HIT %:     99.957  MISS %:  0.0430478   MPKI: 5e-06
PSCL3 TRANSLATION FROM L1D PREFETCHER ACCESS:     137218  HIT:     137218  MISS:          0  HIT %:        100  MISS %:          0   MPKI: 0
PSCL3 PREFETCH  REQUESTED:          0  ISSUED:          0  USEFUL:          0  USELESS:          0
PSCL3 USEFUL LOAD PREFETCHES:          0 PREFETCH ISSUED TO LOWER LEVEL:          0  ACCURACY: -nan
PSCL3 TIMELY PREFETCHES:          0 LATE PREFETCHES: 0 DROPPED PREFETCHES: 0
PSCL3 PREFETCHES SAME FILL-ORIGIN LEVEL: 0 DIFFERENT FILL-ORIGIN LEVEL: 0

PSCL2 TOTAL     ACCESS:      53267  HIT:      53242  MISS:         25  HIT %:    99.9531  MISS %:  0.0469334   MPKI: 0.000125
PSCL2 LOAD TRANSLATION ACCESS:       2534  HIT:       2509  MISS:         25  HIT %:    99.0134  MISS %:   0.986582   MPKI: 0.000125
PSCL2 TRANSLATION FROM L1D PREFETCHER ACCESS:      50733  HIT:      50733  MISS:          0  HIT %:        100  MISS %:          0   MPKI: 0
PSCL2 PREFETCH  REQUESTED:          0  ISSUED:          0  USEFUL:          0  USELESS:          0
PSCL2 USEFUL LOAD PREFETCHES:          0 PREFETCH ISSUED TO LOWER LEVEL:          0  ACCURACY: -nan
PSCL2 TIMELY PREFETCHES:          0 LATE PREFETCHES: 0 DROPPED PREFETCHES: 0
PSCL2 PREFETCHES SAME FILL-ORIGIN LEVEL: 0 DIFFERENT FILL-ORIGIN LEVEL: 0

LLC TOTAL     ACCESS:     419992  HIT:     413661  MISS:       6331  HIT %:    98.4926  MISS %:    1.50741   MPKI: 0.031655
LLC LOAD      ACCESS:     232070  HIT:     228832  MISS:       3238  HIT %:    98.6047  MISS %:    1.39527   MPKI: 0.01619
LLC RFO       ACCESS:      36568  HIT:      34593  MISS:       1975  HIT %:    94.5991  MISS %:     5.4009   MPKI: 0.009875
LLC PREFETCH  ACCESS:      31241  HIT:      30372  MISS:        869  HIT %:    97.2184  MISS %:     2.7816   MPKI: 0.004345
AGUS PREFETCH L1 MISS: 0
LLC WRITEBACK ACCESS:     114821  HIT:     114732  MISS:         89  HIT %:    99.9225  MISS %:   0.077512   MPKI: 0.000445
LLC LOAD TRANSLATION ACCESS:       1045  HIT:       1034  MISS:         11  HIT %:    98.9474  MISS %:    1.05263   MPKI: 5.5e-05
LLC TRANSLATION FROM L1D PREFETCHER ACCESS:       4247  HIT:       4098  MISS:        149  HIT %:    96.4916  MISS %:    3.50836   MPKI: 0.000745
LLC PREFETCH  REQUESTED:          0  ISSUED:          0  USEFUL:        342  USELESS:         61
LLC USEFUL LOAD PREFETCHES:        342 PREFETCH ISSUED TO LOWER LEVEL:        869  ACCURACY: 39.3556
LLC TIMELY PREFETCHES:        342 LATE PREFETCHES: 0 DROPPED PREFETCHES: 0
LLC PREFETCHES SAME FILL-ORIGIN LEVEL: 0 DIFFERENT FILL-ORIGIN LEVEL: 0
LLC AVERAGE MISS LATENCY: 110.677 cycles
LLC RQ	ACCESS:     273931	FORWARD:          0	MERGED:          0	TO_CACHE:     273930
LLC WQ	ACCESS:     114821	FORWARD:          1	MERGED:          0	TO_CACHE:     114821
LLC PQ	ACCESS:      31241	FORWARD:          0	MERGED:          0	TO_CACHE:      31241

LLC Dense regions hint to LLC: 0

RAW hits: 2688047
Loads Generated: 46027606
Loads sent to L1D: 43339558
Stores Generated: 24968544
Stores sent to L1D: 24968545
Major fault: 0 Minor fault: 1244
Allocated PAGES: 1244
Completed 

DRAM Statistics
 CHANNEL 0
 RQ ROW_BUFFER_HIT:       3606  ROW_BUFFER_MISS:       2636
 DBUS_CONGESTED:          0
 WQ ROW_BUFFER_HIT:        100  ROW_BUFFER_MISS:        578  FULL:          0

 AVG_CONGESTED_CYCLE: -
 All warmup complete: 2
Channel 0 Bank busy for read cycles: 0
Channel 0 Bank busy for write cycles: 0
Channel 0
Rank 0
0banks busy for read cycles: 516865293
0banks busy for write cycles: 536
1banks busy for read cycles: 308800
1banks busy for write cycles: 85231
2banks busy for read cycles: 128905
2banks busy for write cycles: 11346
3banks busy for read cycles: 2330
3banks busy for write cycles: 2681
4banks busy for read cycles: 525
4banks busy for write cycles: 714
5banks busy for read cycles: 0
5banks busy for write cycles: 0
6banks busy for read cycles: 0
6banks busy for write cycles: 0
7banks busy for read cycles: 0
7banks busy for write cycles: 0
8banks busy for read cycles: 0
8banks busy for write cycles: 0

CPU 0 Branch Prediction Accuracy: 99.958% MPKI: 0.07838 Average ROB Occupancy at Mispredict: 17.0974
Branch types
NOT_BRANCH: 162686417 81.3432%
BRANCH_DIRECT_JUMP: 2936764 1.46838%
BRANCH_INDIRECT: 13065636 6.53282%
BRANCH_CONDITIONAL: 11676503 5.83825%
BRANCH_DIRECT_CALL: 4007660 2.00383%
BRANCH_INDIRECT_CALL: 809679 0.40484%
BRANCH_RETURN: 4817314 2.40866%
BRANCH_OTHER: 0 0%

DRAM PAGES: 1048576
Allocated PAGES: 1244
