
*** ChampSim Multicore Out-of-Order Simulator ***

Warmup Instructions: 50000000
Simulation Instructions: 200000000
Number of CPUs: 1
LLC sets: 2048
LLC ways: 16
Off-chip DRAM Size: 4096 MB Channels: 1 Width: 64-bit Data Rate: 6400 MT/s
CPU 0 runs traces/spec2k17/server_001.champsimtrace.xz
.xz
BTB has LRU replacement policy
ITLB has LRU replacement policy
DTLB has LRU replacement policy
STLB has LRU replacement policy
L1I has LRU replacement policy
L1D has LRU replacement policy
Initialize SRRIP state for L2C
Initialize DRRIP state for LLC
Heartbeat CPU 0 instructions: 10000000 cycles: 2723526 heartbeat IPC: 3.67171 cumulative IPC: 3.67171 (Simulation time: 0 hr 0 min 25 sec) 
Heartbeat CPU 0 instructions: 20000000 cycles: 5453939 heartbeat IPC: 3.66245 cumulative IPC: 3.66707 (Simulation time: 0 hr 0 min 49 sec) 
Heartbeat CPU 0 instructions: 30000002 cycles: 8183488 heartbeat IPC: 3.66361 cumulative IPC: 3.66592 (Simulation time: 0 hr 1 min 14 sec) 
Heartbeat CPU 0 instructions: 40000001 cycles: 10918973 heartbeat IPC: 3.65566 cumulative IPC: 3.66335 (Simulation time: 0 hr 1 min 38 sec) 
Heartbeat CPU 0 instructions: 50000000 cycles: 13641079 heartbeat IPC: 3.67363 cumulative IPC: 3.6654 (Simulation time: 0 hr 2 min 2 sec) 

Warmup complete CPU 0 instructions: 50000004 cycles: 13641080 (Simulation time: 0 hr 2 min 2 sec) 

Heartbeat CPU 0 instructions: 60000000 cycles: 31128384 heartbeat IPC: 0.571843 cumulative IPC: 0.571843 (Simulation time: 0 hr 2 min 40 sec) 
Heartbeat CPU 0 instructions: 70000000 cycles: 47854773 heartbeat IPC: 0.597858 cumulative IPC: 0.584561 (Simulation time: 0 hr 3 min 17 sec) 
Heartbeat CPU 0 instructions: 80000003 cycles: 64515797 heartbeat IPC: 0.600203 cumulative IPC: 0.589684 (Simulation time: 0 hr 3 min 54 sec) 
Heartbeat CPU 0 instructions: 90000000 cycles: 81633930 heartbeat IPC: 0.584176 cumulative IPC: 0.588297 (Simulation time: 0 hr 4 min 31 sec) 
Heartbeat CPU 0 instructions: 100000000 cycles: 98172632 heartbeat IPC: 0.604642 cumulative IPC: 0.591495 (Simulation time: 0 hr 5 min 8 sec) 
*** Reached end of trace for Core: 0 Repeating trace: traces/spec2k17/server_001.champsimtrace.xz
Heartbeat CPU 0 instructions: 110000000 cycles: 115404866 heartbeat IPC: 0.580308 cumulative IPC: 0.589601 (Simulation time: 0 hr 5 min 47 sec) 
Heartbeat CPU 0 instructions: 120000000 cycles: 131133095 heartbeat IPC: 0.635799 cumulative IPC: 0.595785 (Simulation time: 0 hr 6 min 23 sec) 
Heartbeat CPU 0 instructions: 130000002 cycles: 148092803 heartbeat IPC: 0.589633 cumulative IPC: 0.595009 (Simulation time: 0 hr 7 min 1 sec) 
Heartbeat CPU 0 instructions: 140000002 cycles: 165535526 heartbeat IPC: 0.573305 cumulative IPC: 0.592517 (Simulation time: 0 hr 7 min 37 sec) 
Heartbeat CPU 0 instructions: 150000001 cycles: 182909222 heartbeat IPC: 0.575583 cumulative IPC: 0.590779 (Simulation time: 0 hr 8 min 15 sec) 
Heartbeat CPU 0 instructions: 160000000 cycles: 199108905 heartbeat IPC: 0.617296 cumulative IPC: 0.593095 (Simulation time: 0 hr 8 min 52 sec) 
Heartbeat CPU 0 instructions: 170000000 cycles: 215914696 heartbeat IPC: 0.595033 cumulative IPC: 0.593256 (Simulation time: 0 hr 9 min 29 sec) 
Heartbeat CPU 0 instructions: 180000001 cycles: 232594482 heartbeat IPC: 0.599528 cumulative IPC: 0.593734 (Simulation time: 0 hr 10 min 7 sec) 
Heartbeat CPU 0 instructions: 190000003 cycles: 249114848 heartbeat IPC: 0.605314 cumulative IPC: 0.594546 (Simulation time: 0 hr 10 min 44 sec) 
Heartbeat CPU 0 instructions: 200000001 cycles: 265625360 heartbeat IPC: 0.605675 cumulative IPC: 0.595275 (Simulation time: 0 hr 11 min 21 sec) 
*** Reached end of trace for Core: 0 Repeating trace: traces/spec2k17/server_001.champsimtrace.xz
Heartbeat CPU 0 instructions: 210000000 cycles: 282505055 heartbeat IPC: 0.592428 cumulative IPC: 0.595096 (Simulation time: 0 hr 11 min 58 sec) 
Heartbeat CPU 0 instructions: 220000000 cycles: 298879685 heartbeat IPC: 0.610701 cumulative IPC: 0.595992 (Simulation time: 0 hr 12 min 34 sec) 
Heartbeat CPU 0 instructions: 230000002 cycles: 315254246 heartbeat IPC: 0.610704 cumulative IPC: 0.596791 (Simulation time: 0 hr 13 min 11 sec) 
Heartbeat CPU 0 instructions: 240000002 cycles: 332976102 heartbeat IPC: 0.564275 cumulative IPC: 0.594986 (Simulation time: 0 hr 13 min 47 sec) 
Heartbeat CPU 0 instructions: 250000002 cycles: 349349076 heartbeat IPC: 0.610763 cumulative IPC: 0.595756 (Simulation time: 0 hr 14 min 24 sec) 
Finished CPU 0 instructions: 200000003 cycles: 335708002 cumulative IPC: 0.595756 (Simulation time: 0 hr 14 min 24 sec) 

ChampSim completed all CPUs

Region of Interest Statistics

CPU 0 cumulative IPC: 0.595756 instructions: 200000003 cycles: 335708002
ITLB TOTAL     ACCESS:   29906948  HIT:   29489628  MISS:     417320  HIT %:    98.6046  MISS %:    1.39539   MPKI: 2.0866
ITLB LOAD TRANSLATION ACCESS:   29906948  HIT:   29489628  MISS:     417320  HIT %:    98.6046  MISS %:    1.39539   MPKI: 2.0866
ITLB PREFETCH  REQUESTED:          0  ISSUED:          0  USEFUL:          0  USELESS:          0
ITLB USEFUL LOAD PREFETCHES:          0 PREFETCH ISSUED TO LOWER LEVEL:          0  ACCURACY: -nan
ITLB TIMELY PREFETCHES:          0 LATE PREFETCHES: 0 DROPPED PREFETCHES: 0
ITLB PREFETCHES SAME FILL-ORIGIN LEVEL: 0 DIFFERENT FILL-ORIGIN LEVEL: 0
ITLB AVERAGE MISS LATENCY: 12.6707 cycles
ITLB RQ	ACCESS:   36675357	FORWARD:          0	MERGED:    6644269	TO_CACHE:   30031088

DTLB TOTAL     ACCESS:   36793268  HIT:   35613567  MISS:    1179701  HIT %:    96.7937  MISS %:     3.2063   MPKI: 5.8985
DTLB LOAD TRANSLATION ACCESS:   36793268  HIT:   35613567  MISS:    1179701  HIT %:    96.7937  MISS %:     3.2063   MPKI: 5.8985
DTLB PREFETCH  REQUESTED:          0  ISSUED:          0  USEFUL:          0  USELESS:          0
DTLB USEFUL LOAD PREFETCHES:          0 PREFETCH ISSUED TO LOWER LEVEL:          0  ACCURACY: -nan
DTLB TIMELY PREFETCHES:          0 LATE PREFETCHES: 0 DROPPED PREFETCHES: 0
DTLB PREFETCHES SAME FILL-ORIGIN LEVEL: 0 DIFFERENT FILL-ORIGIN LEVEL: 0
DTLB AVERAGE MISS LATENCY: 17.8411 cycles
DTLB RQ	ACCESS:   46776782	FORWARD:          0	MERGED:    9923069	TO_CACHE:   36853713

STLB TOTAL     ACCESS:    4858056  HIT:    4736805  MISS:     121251  HIT %:    97.5041  MISS %:    2.49587   MPKI: 0.606255
STLB LOAD TRANSLATION ACCESS:    1597021  HIT:    1479298  MISS:     117723  HIT %:    92.6286  MISS %:    7.37141   MPKI: 0.588615
STLB TRANSLATION FROM L1D PREFETCHER ACCESS:    3261035  HIT:    3257507  MISS:       3528  HIT %:    99.8918  MISS %:   0.108187   MPKI: 0.01764
STLB PREFETCH  REQUESTED:          0  ISSUED:          0  USEFUL:       2749  USELESS:        774
STLB USEFUL LOAD PREFETCHES:       2749 PREFETCH ISSUED TO LOWER LEVEL:          0  ACCURACY: inf
STLB TIMELY PREFETCHES:       2749 LATE PREFETCHES: 178 DROPPED PREFETCHES: 136256
STLB PREFETCHES SAME FILL-ORIGIN LEVEL: 0 DIFFERENT FILL-ORIGIN LEVEL: 0
STLB AVERAGE MISS LATENCY: 102.418 cycles
STLB RQ	ACCESS:    5494739	FORWARD:          0	MERGED:     499099	TO_CACHE:    4995640

STLB Hit, L1D data hit: 0
STLB Hit, L2C data hit: 0
STLB Hit, LLC data hit: 0
STLB Hit, LLC data miss: 0
STLB STLB hints to L2: 0
L1D TOTAL     ACCESS:   48696662  HIT:   47047790  MISS:    1648872  HIT %:     96.614  MISS %:    3.38601   MPKI: 8.24436
L1D LOAD      ACCESS:   25420920  HIT:   24215707  MISS:    1205213  HIT %:     95.259  MISS %:    4.74103   MPKI: 6.02606
L1D RFO       ACCESS:   19664418  HIT:   19274216  MISS:     390202  HIT %:    98.0157  MISS %:     1.9843   MPKI: 1.95101
L1D PREFETCH  ACCESS:    3611324  HIT:    3557867  MISS:      53457  HIT %:    98.5197  MISS %:    1.48026   MPKI: 0.267285
AGUS PREFETCH L1 MISS: 0
L1D PREFETCH  REQUESTED:    8663070  ISSUED:    8654152  USEFUL:      17592  USELESS:      35855
L1D USEFUL LOAD PREFETCHES:      17592 PREFETCH ISSUED TO LOWER LEVEL:      88676  ACCURACY: 19.8385
L1D TIMELY PREFETCHES:      17592 LATE PREFETCHES: 35196 DROPPED PREFETCHES: 144194
L1D PREFETCHES SAME FILL-ORIGIN LEVEL: 88676 DIFFERENT FILL-ORIGIN LEVEL: 0
L1D AVERAGE MISS LATENCY: 4.14538e+06 cycles
L1D RQ	ACCESS:   41406504	FORWARD:          0	MERGED:   15490982	TO_CACHE:   25686976
L1D WQ	ACCESS:   21428311	FORWARD:     241238	MERGED:     338505	TO_CACHE:   21089806
L1D PQ	ACCESS:    4756434	FORWARD:          0	MERGED:     846024	TO_CACHE:    3897718

L1D UNIQUE REGIONS ACCESSED: 0
L1D REGIONS CONFLICTS: 0
L1D Cross Page Prefetch Requests: 2859782
L1D Same Page Prefetch Requests: 2618762
L1D ROI Sum of L1D PQ occupancy: 62621451
L1D PREFETCHES PUSHED FROM L2C: 0
L1I TOTAL     ACCESS:   35824576  HIT:   33881803  MISS:    1942773  HIT %:     94.577  MISS %:    5.42302   MPKI: 9.71386
L1I LOAD      ACCESS:   35824576  HIT:   33881803  MISS:    1942773  HIT %:     94.577  MISS %:    5.42302   MPKI: 9.71386
L1I PREFETCH  REQUESTED:          0  ISSUED:          0  USEFUL:          0  USELESS:          0
L1I USEFUL LOAD PREFETCHES:          0 PREFETCH ISSUED TO LOWER LEVEL:          0  ACCURACY: -nan
L1I TIMELY PREFETCHES:          0 LATE PREFETCHES: 0 DROPPED PREFETCHES: 0
L1I PREFETCHES SAME FILL-ORIGIN LEVEL: 0 DIFFERENT FILL-ORIGIN LEVEL: 0
L1I AVERAGE MISS LATENCY: 25.9597 cycles
L1I RQ	ACCESS:   54954541	FORWARD:          0	MERGED:   18279184	TO_CACHE:   36675357

BTB TOTAL     ACCESS:   19565792  HIT:   17841636  MISS:    1724156  HIT %:    91.1879  MISS %:    8.81209   MPKI: 8.62078
BTB BRANCH_DIRECT_JUMP	ACCESS:    1340351  HIT:    1290273  MISS:      50078
BTB BRANCH_INDIRECT	ACCESS:    8225897  HIT:    7338608  MISS:     887289
BTB BRANCH_CONDITIONAL	ACCESS:    5257195  HIT:    5175329  MISS:      81866
BTB BRANCH_DIRECT_CALL	ACCESS:    2229321  HIT:    2140579  MISS:      88742
BTB BRANCH_INDIRECT_CALL	ACCESS:     141641  HIT:     131666  MISS:       9975
BTB BRANCH_RETURN	ACCESS:    2371387  HIT:    1765181  MISS:     606206
BTB BRANCH_OTHER ACCESS:          0  HIT:          0  MISS:          0

L2C TOTAL     ACCESS:    4728506  HIT:    2988576  MISS:    1739930  HIT %:    63.2034  MISS %:    36.7966   MPKI: 8.69965
L2C LOAD      ACCESS:    3112763  HIT:    1845111  MISS:    1267652  HIT %:    59.2757  MISS %:    40.7243   MPKI: 6.33826
L2C DATA LOAD MPKI: 3.7347
L2C INSTRUCTION LOAD MPKI: 2.60355
L2C RFO       ACCESS:     390177  HIT:      67759  MISS:     322418  HIT %:    17.3662  MISS %:    82.6338   MPKI: 1.61209
L2C PREFETCH  ACCESS:      88676  HIT:      54177  MISS:      34499  HIT %:    61.0954  MISS %:    38.9046   MPKI: 0.172495
AGUS PREFETCH L1 MISS: 0
L2C DATA PREFETCH MPKI: 0.172495
L2C INSTRUCTION PREFETCH MPKI: 0
L2C WRITEBACK ACCESS:     802289  HIT:     776219  MISS:      26070  HIT %:    96.7505  MISS %:    3.24945   MPKI: 0.13035
L2C LOAD TRANSLATION ACCESS:     150211  HIT:      70305  MISS:      79906  HIT %:    46.8042  MISS %:    53.1958   MPKI: 0.39953
L2C TRANSLATION FROM L1D PREFETCHER ACCESS:     184390  HIT:     175005  MISS:       9385  HIT %:    94.9102  MISS %:    5.08976   MPKI: 0.046925
L2C PREFETCH  REQUESTED:          0  ISSUED:          0  USEFUL:      10704  USELESS:      33119
L2C USEFUL LOAD PREFETCHES:      10704 PREFETCH ISSUED TO LOWER LEVEL:      34499  ACCURACY: 31.027
L2C TIMELY PREFETCHES:      10704 LATE PREFETCHES: 0 DROPPED PREFETCHES: 0
L2C PREFETCHES SAME FILL-ORIGIN LEVEL: 0 DIFFERENT FILL-ORIGIN LEVEL: 0
L2C AVERAGE MISS LATENCY: 126.415 cycles
L2C RQ	ACCESS:    3837570	FORWARD:          0	MERGED:          0	TO_CACHE:    3837541
L2C WQ	ACCESS:     802289	FORWARD:         29	MERGED:          0	TO_CACHE:     802289
L2C PQ	ACCESS:      88676	FORWARD:          0	MERGED:          0	TO_CACHE:      88676

L2C Instructions Evicting Data 334744
L2C Translations Evicting Data 57147
L2C Data Evicting Data 722843
L2C Instructions Evicting Instructions 160436
L2C Translations Evicting Instructions 27502
L2C Data Evicting Instructions 323265
L2C Instructions Evicting Translations 25531
L2C Translations Evicting Translations 4642
L2C Data Evicting Translations 57750
L2C Dense regions hint from L2: 0
PSCL5 TOTAL     ACCESS:     251927  HIT:     251927  MISS:          0  HIT %:        100  MISS %:          0   MPKI: 0
PSCL5 LOAD TRANSLATION ACCESS:     117545  HIT:     117545  MISS:          0  HIT %:        100  MISS %:          0   MPKI: 0
PSCL5 TRANSLATION FROM L1D PREFETCHER ACCESS:     134382  HIT:     134382  MISS:          0  HIT %:        100  MISS %:          0   MPKI: 0
PSCL5 PREFETCH  REQUESTED:          0  ISSUED:          0  USEFUL:          0  USELESS:          0
PSCL5 USEFUL LOAD PREFETCHES:          0 PREFETCH ISSUED TO LOWER LEVEL:          0  ACCURACY: -nan
PSCL5 TIMELY PREFETCHES:          0 LATE PREFETCHES: 0 DROPPED PREFETCHES: 0
PSCL5 PREFETCHES SAME FILL-ORIGIN LEVEL: 0 DIFFERENT FILL-ORIGIN LEVEL: 0

PSCL4 TOTAL     ACCESS:     241683  HIT:     241338  MISS:        345  HIT %:    99.8573  MISS %:   0.142749   MPKI: 0.001725
PSCL4 LOAD TRANSLATION ACCESS:     115524  HIT:     115179  MISS:        345  HIT %:    99.7014  MISS %:   0.298639   MPKI: 0.001725
PSCL4 TRANSLATION FROM L1D PREFETCHER ACCESS:     126159  HIT:     126159  MISS:          0  HIT %:        100  MISS %:          0   MPKI: 0
PSCL4 PREFETCH  REQUESTED:          0  ISSUED:          0  USEFUL:          0  USELESS:          0
PSCL4 USEFUL LOAD PREFETCHES:          0 PREFETCH ISSUED TO LOWER LEVEL:          0  ACCURACY: -nan
PSCL4 TIMELY PREFETCHES:          0 LATE PREFETCHES: 0 DROPPED PREFETCHES: 0
PSCL4 PREFETCHES SAME FILL-ORIGIN LEVEL: 0 DIFFERENT FILL-ORIGIN LEVEL: 0

PSCL3 TOTAL     ACCESS:     222540  HIT:     222195  MISS:        345  HIT %:     99.845  MISS %:   0.155028   MPKI: 0.001725
PSCL3 LOAD TRANSLATION ACCESS:     117231  HIT:     116886  MISS:        345  HIT %:    99.7057  MISS %:   0.294291   MPKI: 0.001725
PSCL3 TRANSLATION FROM L1D PREFETCHER ACCESS:     105309  HIT:     105309  MISS:          0  HIT %:        100  MISS %:          0   MPKI: 0
PSCL3 PREFETCH  REQUESTED:          0  ISSUED:          0  USEFUL:          0  USELESS:          0
PSCL3 USEFUL LOAD PREFETCHES:          0 PREFETCH ISSUED TO LOWER LEVEL:          0  ACCURACY: -nan
PSCL3 TIMELY PREFETCHES:          0 LATE PREFETCHES: 0 DROPPED PREFETCHES: 0
PSCL3 PREFETCHES SAME FILL-ORIGIN LEVEL: 0 DIFFERENT FILL-ORIGIN LEVEL: 0

PSCL2 TOTAL     ACCESS:     130667  HIT:      97534  MISS:      33133  HIT %:    74.6432  MISS %:    25.3568   MPKI: 0.165665
PSCL2 LOAD TRANSLATION ACCESS:     118687  HIT:      85554  MISS:      33133  HIT %:    72.0837  MISS %:    27.9163   MPKI: 0.165665
PSCL2 TRANSLATION FROM L1D PREFETCHER ACCESS:      11980  HIT:      11980  MISS:          0  HIT %:        100  MISS %:          0   MPKI: 0
PSCL2 PREFETCH  REQUESTED:          0  ISSUED:          0  USEFUL:          0  USELESS:          0
PSCL2 USEFUL LOAD PREFETCHES:          0 PREFETCH ISSUED TO LOWER LEVEL:          0  ACCURACY: -nan
PSCL2 TIMELY PREFETCHES:          0 LATE PREFETCHES: 0 DROPPED PREFETCHES: 0
PSCL2 PREFETCHES SAME FILL-ORIGIN LEVEL: 0 DIFFERENT FILL-ORIGIN LEVEL: 0

LLC TOTAL     ACCESS:    2366653  HIT:    1463944  MISS:     902709  HIT %:    61.8571  MISS %:    38.1429   MPKI: 4.51354
LLC LOAD      ACCESS:    1267652  HIT:     749242  MISS:     518410  HIT %:    59.1047  MISS %:    40.8953   MPKI: 2.59205
LLC RFO       ACCESS:     322418  HIT:      23987  MISS:     298431  HIT %:    7.43972  MISS %:    92.5603   MPKI: 1.49215
LLC PREFETCH  ACCESS:      34499  HIT:      14551  MISS:      19948  HIT %:     42.178  MISS %:     57.822   MPKI: 0.09974
AGUS PREFETCH L1 MISS: 0
LLC WRITEBACK ACCESS:     652793  HIT:     620477  MISS:      32316  HIT %:    95.0496  MISS %:    4.95042   MPKI: 0.16158
LLC LOAD TRANSLATION ACCESS:      79906  HIT:      49970  MISS:      29936  HIT %:     62.536  MISS %:     37.464   MPKI: 0.14968
LLC TRANSLATION FROM L1D PREFETCHER ACCESS:       9385  HIT:       5717  MISS:       3668  HIT %:    60.9164  MISS %:    39.0836   MPKI: 0.01834
LLC PREFETCH  REQUESTED:          0  ISSUED:          0  USEFUL:       2411  USELESS:      20895
LLC USEFUL LOAD PREFETCHES:       2411 PREFETCH ISSUED TO LOWER LEVEL:      19948  ACCURACY: 12.0864
LLC TIMELY PREFETCHES:       2411 LATE PREFETCHES: 0 DROPPED PREFETCHES: 0
LLC PREFETCHES SAME FILL-ORIGIN LEVEL: 0 DIFFERENT FILL-ORIGIN LEVEL: 0
LLC AVERAGE MISS LATENCY: 186.458 cycles
LLC RQ	ACCESS:    1679361	FORWARD:          0	MERGED:          0	TO_CACHE:    1679361
LLC WQ	ACCESS:     652793	FORWARD:          0	MERGED:          0	TO_CACHE:     652793
LLC PQ	ACCESS:      34499	FORWARD:          0	MERGED:          0	TO_CACHE:      34499

LLC Dense regions hint to LLC: 0

RAW hits: 4159026
Loads Generated: 45565530
Loads sent to L1D: 41406504
Stores Generated: 21428291
Stores sent to L1D: 21428311
Major fault: 0 Minor fault: 17224
Allocated PAGES: 17224
Completed 

DRAM Statistics
 CHANNEL 0
 RQ ROW_BUFFER_HIT:     228936  ROW_BUFFER_MISS:     641450
 DBUS_CONGESTED:        391
 WQ ROW_BUFFER_HIT:     100734  ROW_BUFFER_MISS:     494453  FULL:        206

 AVG_CONGESTED_CYCLE: 5
 All warmup complete: 2
Channel 0 Bank busy for read cycles: 0
Channel 0 Bank busy for write cycles: 0
Channel 0
Rank 0
0banks busy for read cycles: 203446283
0banks busy for write cycles: 260123
1banks busy for read cycles: 59195015
1banks busy for write cycles: 35539865
2banks busy for read cycles: 12622447
2banks busy for write cycles: 12112507
3banks busy for read cycles: 1004618
3banks busy for write cycles: 3148302
4banks busy for read cycles: 252543
4banks busy for write cycles: 1206775
5banks busy for read cycles: 172861
5banks busy for write cycles: 570065
6banks busy for read cycles: 167729
6banks busy for write cycles: 308838
7banks busy for read cycles: 297299
7banks busy for write cycles: 400183
8banks busy for read cycles: 1953141
8banks busy for write cycles: 3049409

CPU 0 Branch Prediction Accuracy: 99.7678% MPKI: 0.38212 Average ROB Occupancy at Mispredict: 61.6542
Branch types
NOT_BRANCH: 167088784 83.5444%
BRANCH_DIRECT_JUMP: 1340351 0.670175%
BRANCH_INDIRECT: 8225897 4.11295%
BRANCH_CONDITIONAL: 18602253 9.30113%
BRANCH_DIRECT_CALL: 2229321 1.11466%
BRANCH_INDIRECT_CALL: 141641 0.0708205%
BRANCH_RETURN: 2371387 1.18569%
BRANCH_OTHER: 0 0%

DRAM PAGES: 1048576
Allocated PAGES: 17224
