
*** ChampSim Multicore Out-of-Order Simulator ***

Warmup Instructions: 50000000
Simulation Instructions: 200000000
Number of CPUs: 1
LLC sets: 2048
LLC ways: 16
Off-chip DRAM Size: 4096 MB Channels: 1 Width: 64-bit Data Rate: 6400 MT/s
CPU 0 runs traces/spec2k17/server_021.champsimtrace.xz
.xz
BTB has LRU replacement policy
ITLB has LRU replacement policy
DTLB has LRU replacement policy
STLB has LRU replacement policy
L1I has LRU replacement policy
L1D has LRU replacement policy
Initialize SRRIP state for L2C
Initialize DRRIP state for LLC
Heartbeat CPU 0 instructions: 10000003 cycles: 2945208 heartbeat IPC: 3.39535 cumulative IPC: 3.39535 (Simulation time: 0 hr 0 min 28 sec) 
Heartbeat CPU 0 instructions: 20000002 cycles: 5883483 heartbeat IPC: 3.40336 cumulative IPC: 3.39935 (Simulation time: 0 hr 0 min 55 sec) 
Heartbeat CPU 0 instructions: 30000000 cycles: 8828810 heartbeat IPC: 3.39521 cumulative IPC: 3.39797 (Simulation time: 0 hr 1 min 22 sec) 
Heartbeat CPU 0 instructions: 40000003 cycles: 11769272 heartbeat IPC: 3.40083 cumulative IPC: 3.39868 (Simulation time: 0 hr 1 min 49 sec) 
Heartbeat CPU 0 instructions: 50000000 cycles: 14714238 heartbeat IPC: 3.39562 cumulative IPC: 3.39807 (Simulation time: 0 hr 2 min 16 sec) 

Warmup complete CPU 0 instructions: 50000001 cycles: 14714239 (Simulation time: 0 hr 2 min 16 sec) 

Heartbeat CPU 0 instructions: 60000001 cycles: 35502777 heartbeat IPC: 0.481034 cumulative IPC: 0.481034 (Simulation time: 0 hr 3 min 3 sec) 
Heartbeat CPU 0 instructions: 70000001 cycles: 55417304 heartbeat IPC: 0.502146 cumulative IPC: 0.491363 (Simulation time: 0 hr 3 min 49 sec) 
Heartbeat CPU 0 instructions: 80000001 cycles: 74987153 heartbeat IPC: 0.51099 cumulative IPC: 0.497736 (Simulation time: 0 hr 4 min 35 sec) 
Heartbeat CPU 0 instructions: 90000002 cycles: 94375719 heartbeat IPC: 0.515768 cumulative IPC: 0.502125 (Simulation time: 0 hr 5 min 20 sec) 
Heartbeat CPU 0 instructions: 100000000 cycles: 113800528 heartbeat IPC: 0.514805 cumulative IPC: 0.504611 (Simulation time: 0 hr 6 min 5 sec) 
*** Reached end of trace for Core: 0 Repeating trace: traces/spec2k17/server_021.champsimtrace.xz
Heartbeat CPU 0 instructions: 110000000 cycles: 133272853 heartbeat IPC: 0.513549 cumulative IPC: 0.506079 (Simulation time: 0 hr 6 min 51 sec) 
Heartbeat CPU 0 instructions: 120000003 cycles: 152601367 heartbeat IPC: 0.517371 cumulative IPC: 0.507662 (Simulation time: 0 hr 7 min 36 sec) 
Heartbeat CPU 0 instructions: 130000000 cycles: 171899858 heartbeat IPC: 0.518175 cumulative IPC: 0.508952 (Simulation time: 0 hr 8 min 22 sec) 
Heartbeat CPU 0 instructions: 140000003 cycles: 191217722 heartbeat IPC: 0.517656 cumulative IPC: 0.509905 (Simulation time: 0 hr 9 min 8 sec) 
Heartbeat CPU 0 instructions: 150000003 cycles: 210517640 heartbeat IPC: 0.518137 cumulative IPC: 0.510716 (Simulation time: 0 hr 9 min 55 sec) 
Heartbeat CPU 0 instructions: 160000001 cycles: 229983511 heartbeat IPC: 0.513719 cumulative IPC: 0.510988 (Simulation time: 0 hr 10 min 42 sec) 
Heartbeat CPU 0 instructions: 170000001 cycles: 249307277 heartbeat IPC: 0.517497 cumulative IPC: 0.511524 (Simulation time: 0 hr 11 min 28 sec) 
Heartbeat CPU 0 instructions: 180000000 cycles: 268642406 heartbeat IPC: 0.517193 cumulative IPC: 0.511956 (Simulation time: 0 hr 12 min 13 sec) 
Heartbeat CPU 0 instructions: 190000000 cycles: 287957535 heartbeat IPC: 0.517729 cumulative IPC: 0.512364 (Simulation time: 0 hr 12 min 59 sec) 
Heartbeat CPU 0 instructions: 200000002 cycles: 307183691 heartbeat IPC: 0.520125 cumulative IPC: 0.512874 (Simulation time: 0 hr 13 min 45 sec) 
Heartbeat CPU 0 instructions: 210000001 cycles: 326444688 heartbeat IPC: 0.519184 cumulative IPC: 0.513264 (Simulation time: 0 hr 14 min 31 sec) 
*** Reached end of trace for Core: 0 Repeating trace: traces/spec2k17/server_021.champsimtrace.xz
Heartbeat CPU 0 instructions: 220000000 cycles: 345877466 heartbeat IPC: 0.514594 cumulative IPC: 0.513342 (Simulation time: 0 hr 15 min 18 sec) 
Heartbeat CPU 0 instructions: 230000003 cycles: 365155466 heartbeat IPC: 0.518726 cumulative IPC: 0.513638 (Simulation time: 0 hr 16 min 5 sec) 
Heartbeat CPU 0 instructions: 240000002 cycles: 384427871 heartbeat IPC: 0.518877 cumulative IPC: 0.513911 (Simulation time: 0 hr 16 min 51 sec) 
Heartbeat CPU 0 instructions: 250000000 cycles: 403729912 heartbeat IPC: 0.51808 cumulative IPC: 0.514118 (Simulation time: 0 hr 17 min 36 sec) 
Finished CPU 0 instructions: 200000003 cycles: 389015674 cumulative IPC: 0.514118 (Simulation time: 0 hr 17 min 36 sec) 

ChampSim completed all CPUs

Region of Interest Statistics

CPU 0 cumulative IPC: 0.514118 instructions: 200000003 cycles: 389015674
ITLB TOTAL     ACCESS:   33769158  HIT:   32234897  MISS:    1534261  HIT %:    95.4566  MISS %:    4.54338   MPKI: 7.6713
ITLB LOAD TRANSLATION ACCESS:   33769158  HIT:   32234897  MISS:    1534261  HIT %:    95.4566  MISS %:    4.54338   MPKI: 7.6713
ITLB PREFETCH  REQUESTED:          0  ISSUED:          0  USEFUL:          0  USELESS:          0
ITLB USEFUL LOAD PREFETCHES:          0 PREFETCH ISSUED TO LOWER LEVEL:          0  ACCURACY: -nan
ITLB TIMELY PREFETCHES:          0 LATE PREFETCHES: 0 DROPPED PREFETCHES: 0
ITLB PREFETCHES SAME FILL-ORIGIN LEVEL: 0 DIFFERENT FILL-ORIGIN LEVEL: 0
ITLB AVERAGE MISS LATENCY: 9.20671 cycles
ITLB RQ	ACCESS:   40642807	FORWARD:          0	MERGED:    6379790	TO_CACHE:   34263017

DTLB TOTAL     ACCESS:   39890092  HIT:   38391763  MISS:    1498329  HIT %:    96.2439  MISS %:    3.75614   MPKI: 7.49164
DTLB LOAD TRANSLATION ACCESS:   39890092  HIT:   38391763  MISS:    1498329  HIT %:    96.2439  MISS %:    3.75614   MPKI: 7.49164
DTLB PREFETCH  REQUESTED:          0  ISSUED:          0  USEFUL:          0  USELESS:          0
DTLB USEFUL LOAD PREFETCHES:          0 PREFETCH ISSUED TO LOWER LEVEL:          0  ACCURACY: -nan
DTLB TIMELY PREFETCHES:          0 LATE PREFETCHES: 0 DROPPED PREFETCHES: 0
DTLB PREFETCHES SAME FILL-ORIGIN LEVEL: 0 DIFFERENT FILL-ORIGIN LEVEL: 0
DTLB AVERAGE MISS LATENCY: 14.1659 cycles
DTLB RQ	ACCESS:   60987180	FORWARD:          0	MERGED:   20723079	TO_CACHE:   40264101

STLB TOTAL     ACCESS:    9669217  HIT:    9592465  MISS:      76752  HIT %:    99.2062  MISS %:   0.793777   MPKI: 0.38376
STLB LOAD TRANSLATION ACCESS:    3032590  HIT:    2959024  MISS:      73566  HIT %:    97.5742  MISS %:    2.42585   MPKI: 0.36783
STLB TRANSLATION FROM L1D PREFETCHER ACCESS:    6636627  HIT:    6633441  MISS:       3186  HIT %:     99.952  MISS %:  0.0480063   MPKI: 0.01593
STLB PREFETCH  REQUESTED:          0  ISSUED:          0  USEFUL:       2393  USELESS:        787
STLB USEFUL LOAD PREFETCHES:       2393 PREFETCH ISSUED TO LOWER LEVEL:          0  ACCURACY: inf
STLB TIMELY PREFETCHES:       2393 LATE PREFETCHES: 985 DROPPED PREFETCHES: 57311
STLB PREFETCHES SAME FILL-ORIGIN LEVEL: 0 DIFFERENT FILL-ORIGIN LEVEL: 0
STLB AVERAGE MISS LATENCY: 150344 cycles
STLB RQ	ACCESS:   12404598	FORWARD:          0	MERGED:    2676007	TO_CACHE:    9728591

STLB Hit, L1D data hit: 0
STLB Hit, L2C data hit: 0
STLB Hit, LLC data hit: 0
STLB Hit, LLC data miss: 0
STLB STLB hints to L2: 0
L1D TOTAL     ACCESS:   56990411  HIT:   50037199  MISS:    6953212  HIT %:    87.7993  MISS %:    12.2007   MPKI: 34.7661
L1D LOAD      ACCESS:   26683358  HIT:   23818644  MISS:    2864714  HIT %:     89.264  MISS %:     10.736   MPKI: 14.3236
L1D RFO       ACCESS:   22334842  HIT:   18658220  MISS:    3676622  HIT %:    83.5386  MISS %:    16.4614   MPKI: 18.3831
L1D PREFETCH  ACCESS:    7972211  HIT:    7560335  MISS:     411876  HIT %:    94.8336  MISS %:     5.1664   MPKI: 2.05938
AGUS PREFETCH L1 MISS: 0
L1D PREFETCH  REQUESTED:   20483606  ISSUED:   20481789  USEFUL:     230947  USELESS:     180917
L1D USEFUL LOAD PREFETCHES:     230947 PREFETCH ISSUED TO LOWER LEVEL:     851513  ACCURACY: 27.122
L1D TIMELY PREFETCHES:     230947 LATE PREFETCHES: 437252 DROPPED PREFETCHES: 61741
L1D PREFETCHES SAME FILL-ORIGIN LEVEL: 851513 DIFFERENT FILL-ORIGIN LEVEL: 0
L1D AVERAGE MISS LATENCY: 1.39546e+07 cycles
L1D RQ	ACCESS:   45184892	FORWARD:          0	MERGED:   17821514	TO_CACHE:   27083128
L1D WQ	ACCESS:   34105995	FORWARD:     313738	MERGED:     201943	TO_CACHE:   33904052
L1D PQ	ACCESS:   11109781	FORWARD:          0	MERGED:    1704285	TO_CACHE:    9372008

L1D UNIQUE REGIONS ACCESSED: 0
L1D REGIONS CONFLICTS: 0
L1D Cross Page Prefetch Requests: 4521909
L1D Same Page Prefetch Requests: 8313136
L1D ROI Sum of L1D PQ occupancy: 136801326
L1D PREFETCHES PUSHED FROM L2C: 0
L1I TOTAL     ACCESS:   37992323  HIT:   28912095  MISS:    9080228  HIT %:    76.0998  MISS %:    23.9002   MPKI: 45.4011
L1I LOAD      ACCESS:   37992323  HIT:   28912095  MISS:    9080228  HIT %:    76.0998  MISS %:    23.9002   MPKI: 45.4011
L1I PREFETCH  REQUESTED:          0  ISSUED:          0  USEFUL:          0  USELESS:          0
L1I USEFUL LOAD PREFETCHES:          0 PREFETCH ISSUED TO LOWER LEVEL:          0  ACCURACY: -nan
L1I TIMELY PREFETCHES:          0 LATE PREFETCHES: 0 DROPPED PREFETCHES: 0
L1I PREFETCHES SAME FILL-ORIGIN LEVEL: 0 DIFFERENT FILL-ORIGIN LEVEL: 0
L1I AVERAGE MISS LATENCY: 16.5677 cycles
L1I RQ	ACCESS:   58983158	FORWARD:          0	MERGED:   18340351	TO_CACHE:   40642807

BTB TOTAL     ACCESS:   25736961  HIT:   24179944  MISS:    1557017  HIT %:    93.9503  MISS %:    6.04973   MPKI: 7.78508
BTB BRANCH_DIRECT_JUMP	ACCESS:    1656182  HIT:    1646075  MISS:      10107
BTB BRANCH_INDIRECT	ACCESS:    9984753  HIT:    9460939  MISS:     523814
BTB BRANCH_CONDITIONAL	ACCESS:    7260252  HIT:    7246132  MISS:      14120
BTB BRANCH_DIRECT_CALL	ACCESS:    2821015  HIT:    2786715  MISS:      34300
BTB BRANCH_INDIRECT_CALL	ACCESS:     596869  HIT:     485589  MISS:     111280
BTB BRANCH_RETURN	ACCESS:    3417890  HIT:    2554494  MISS:     863396
BTB BRANCH_OTHER ACCESS:          0  HIT:          0  MISS:          0

L2C TOTAL     ACCESS:   20529309  HIT:   13843275  MISS:    6686034  HIT %:    67.4318  MISS %:    32.5682   MPKI: 33.4302
L2C LOAD      ACCESS:   11507628  HIT:    9173281  MISS:    2334347  HIT %:    79.7148  MISS %:    20.2852   MPKI: 11.6717
L2C DATA LOAD MPKI: 8.88633
L2C INSTRUCTION LOAD MPKI: 2.7854
L2C RFO       ACCESS:    3674233  HIT:     166034  MISS:    3508199  HIT %:    4.51888  MISS %:    95.4811   MPKI: 17.541
L2C PREFETCH  ACCESS:     851492  HIT:     188250  MISS:     663242  HIT %:    22.1083  MISS %:    77.8917   MPKI: 3.31621
AGUS PREFETCH L1 MISS: 0
L2C DATA PREFETCH MPKI: 3.31621
L2C INSTRUCTION PREFETCH MPKI: 0
L2C WRITEBACK ACCESS:    4338903  HIT:    4210617  MISS:     128286  HIT %:    97.0434  MISS %:    2.95665   MPKI: 0.64143
L2C LOAD TRANSLATION ACCESS:      78542  HIT:      44868  MISS:      33674  HIT %:    57.1261  MISS %:    42.8739   MPKI: 0.16837
L2C TRANSLATION FROM L1D PREFETCHER ACCESS:      78511  HIT:      60225  MISS:      18286  HIT %:     76.709  MISS %:     23.291   MPKI: 0.09143
L2C PREFETCH  REQUESTED:          0  ISSUED:          0  USEFUL:      28506  USELESS:     653256
L2C USEFUL LOAD PREFETCHES:      28506 PREFETCH ISSUED TO LOWER LEVEL:     663242  ACCURACY: 4.29798
L2C TIMELY PREFETCHES:      28506 LATE PREFETCHES: 0 DROPPED PREFETCHES: 0
L2C PREFETCHES SAME FILL-ORIGIN LEVEL: 0 DIFFERENT FILL-ORIGIN LEVEL: 0
L2C AVERAGE MISS LATENCY: 160.709 cycles
L2C RQ	ACCESS:   15338980	FORWARD:          0	MERGED:          0	TO_CACHE:   15338915
L2C WQ	ACCESS:    4338903	FORWARD:         86	MERGED:          0	TO_CACHE:    4338903
L2C PQ	ACCESS:     851513	FORWARD:          0	MERGED:          0	TO_CACHE:     851492

L2C Instructions Evicting Data 517129
L2C Translations Evicting Data 47746
L2C Data Evicting Data 5396560
L2C Instructions Evicting Instructions 36231
L2C Translations Evicting Instructions 3813
L2C Data Evicting Instructions 505210
L2C Instructions Evicting Translations 3721
L2C Translations Evicting Translations 401
L2C Data Evicting Translations 46937
L2C Dense regions hint from L2: 0
PSCL5 TOTAL     ACCESS:     127376  HIT:     127376  MISS:          0  HIT %:        100  MISS %:          0   MPKI: 0
PSCL5 LOAD TRANSLATION ACCESS:      72581  HIT:      72581  MISS:          0  HIT %:        100  MISS %:          0   MPKI: 0
PSCL5 TRANSLATION FROM L1D PREFETCHER ACCESS:      54795  HIT:      54795  MISS:          0  HIT %:        100  MISS %:          0   MPKI: 0
PSCL5 PREFETCH  REQUESTED:          0  ISSUED:          0  USEFUL:          0  USELESS:          0
PSCL5 USEFUL LOAD PREFETCHES:          0 PREFETCH ISSUED TO LOWER LEVEL:          0  ACCURACY: -nan
PSCL5 TIMELY PREFETCHES:          0 LATE PREFETCHES: 0 DROPPED PREFETCHES: 0
PSCL5 PREFETCHES SAME FILL-ORIGIN LEVEL: 0 DIFFERENT FILL-ORIGIN LEVEL: 0

PSCL4 TOTAL     ACCESS:     112545  HIT:     112360  MISS:        185  HIT %:    99.8356  MISS %:   0.164379   MPKI: 0.000925
PSCL4 LOAD TRANSLATION ACCESS:      70434  HIT:      70249  MISS:        185  HIT %:    99.7373  MISS %:   0.262657   MPKI: 0.000925
PSCL4 TRANSLATION FROM L1D PREFETCHER ACCESS:      42111  HIT:      42111  MISS:          0  HIT %:        100  MISS %:          0   MPKI: 0
PSCL4 PREFETCH  REQUESTED:          0  ISSUED:          0  USEFUL:          0  USELESS:          0
PSCL4 USEFUL LOAD PREFETCHES:          0 PREFETCH ISSUED TO LOWER LEVEL:          0  ACCURACY: -nan
PSCL4 TIMELY PREFETCHES:          0 LATE PREFETCHES: 0 DROPPED PREFETCHES: 0
PSCL4 PREFETCHES SAME FILL-ORIGIN LEVEL: 0 DIFFERENT FILL-ORIGIN LEVEL: 0

PSCL3 TOTAL     ACCESS:     114661  HIT:     114476  MISS:        185  HIT %:    99.8387  MISS %:   0.161345   MPKI: 0.000925
PSCL3 LOAD TRANSLATION ACCESS:      71327  HIT:      71142  MISS:        185  HIT %:    99.7406  MISS %:   0.259369   MPKI: 0.000925
PSCL3 TRANSLATION FROM L1D PREFETCHER ACCESS:      43334  HIT:      43334  MISS:          0  HIT %:        100  MISS %:          0   MPKI: 0
PSCL3 PREFETCH  REQUESTED:          0  ISSUED:          0  USEFUL:          0  USELESS:          0
PSCL3 USEFUL LOAD PREFETCHES:          0 PREFETCH ISSUED TO LOWER LEVEL:          0  ACCURACY: -nan
PSCL3 TIMELY PREFETCHES:          0 LATE PREFETCHES: 0 DROPPED PREFETCHES: 0
PSCL3 PREFETCHES SAME FILL-ORIGIN LEVEL: 0 DIFFERENT FILL-ORIGIN LEVEL: 0

PSCL2 TOTAL     ACCESS:     100417  HIT:      94479  MISS:       5938  HIT %:    94.0867  MISS %:    5.91334   MPKI: 0.02969
PSCL2 LOAD TRANSLATION ACCESS:      72899  HIT:      66961  MISS:       5938  HIT %:    91.8545  MISS %:    8.14552   MPKI: 0.02969
PSCL2 TRANSLATION FROM L1D PREFETCHER ACCESS:      27518  HIT:      27518  MISS:          0  HIT %:        100  MISS %:          0   MPKI: 0
PSCL2 PREFETCH  REQUESTED:          0  ISSUED:          0  USEFUL:          0  USELESS:          0
PSCL2 USEFUL LOAD PREFETCHES:          0 PREFETCH ISSUED TO LOWER LEVEL:          0  ACCURACY: -nan
PSCL2 TIMELY PREFETCHES:          0 LATE PREFETCHES: 0 DROPPED PREFETCHES: 0
PSCL2 PREFETCHES SAME FILL-ORIGIN LEVEL: 0 DIFFERENT FILL-ORIGIN LEVEL: 0

LLC TOTAL     ACCESS:   10569039  HIT:    4375671  MISS:    6193368  HIT %:    41.4008  MISS %:    58.5992   MPKI: 30.9668
LLC LOAD      ACCESS:    2334347  HIT:    1542935  MISS:     791412  HIT %:    66.0971  MISS %:    33.9029   MPKI: 3.95706
LLC RFO       ACCESS:    3508180  HIT:     958643  MISS:    2549537  HIT %:    27.3259  MISS %:    72.6741   MPKI: 12.7477
LLC PREFETCH  ACCESS:     663242  HIT:     131392  MISS:     531850  HIT %:    19.8106  MISS %:    80.1894   MPKI: 2.65925
AGUS PREFETCH L1 MISS: 0
LLC WRITEBACK ACCESS:    4011310  HIT:    1718563  MISS:    2292747  HIT %:    42.8429  MISS %:    57.1571   MPKI: 11.4637
LLC LOAD TRANSLATION ACCESS:      33674  HIT:      12688  MISS:      20986  HIT %:    37.6789  MISS %:    62.3211   MPKI: 0.10493
LLC TRANSLATION FROM L1D PREFETCHER ACCESS:      18286  HIT:      11450  MISS:       6836  HIT %:    62.6162  MISS %:    37.3838   MPKI: 0.03418
LLC PREFETCH  REQUESTED:          0  ISSUED:          0  USEFUL:       3211  USELESS:     539787
LLC USEFUL LOAD PREFETCHES:       3211 PREFETCH ISSUED TO LOWER LEVEL:     531850  ACCURACY: 0.603742
LLC TIMELY PREFETCHES:       3211 LATE PREFETCHES: 0 DROPPED PREFETCHES: 0
LLC PREFETCHES SAME FILL-ORIGIN LEVEL: 0 DIFFERENT FILL-ORIGIN LEVEL: 0
LLC AVERAGE MISS LATENCY: 141.292 cycles
LLC RQ	ACCESS:    5894506	FORWARD:          0	MERGED:          0	TO_CACHE:    5894487
LLC WQ	ACCESS:    4011311	FORWARD:         19	MERGED:          0	TO_CACHE:    4011311
LLC PQ	ACCESS:     663242	FORWARD:          0	MERGED:          0	TO_CACHE:     663242

LLC Dense regions hint to LLC: 0

RAW hits: 2485605
Loads Generated: 47670499
Loads sent to L1D: 45184892
Stores Generated: 34105974
Stores sent to L1D: 34105995
Major fault: 0 Minor fault: 22424
Allocated PAGES: 22424
Completed 

DRAM Statistics
 CHANNEL 0
 RQ ROW_BUFFER_HIT:    1797960  ROW_BUFFER_MISS:    2102221
 DBUS_CONGESTED:       2055
 WQ ROW_BUFFER_HIT:     560626  ROW_BUFFER_MISS:    2063934  FULL:      53194

 AVG_CONGESTED_CYCLE: 3
 All warmup complete: 2
Channel 0 Bank busy for read cycles: 0
Channel 0 Bank busy for write cycles: 0
Channel 0
Rank 0
0banks busy for read cycles: 172932535
0banks busy for write cycles: 262775
1banks busy for read cycles: 34227135
1banks busy for write cycles: 36597501
2banks busy for read cycles: 14017244
2banks busy for write cycles: 13006061
3banks busy for read cycles: 15208113
3banks busy for write cycles: 6063070
4banks busy for read cycles: 5779829
4banks busy for write cycles: 3981586
5banks busy for read cycles: 4997791
5banks busy for write cycles: 3184389
6banks busy for read cycles: 5908200
6banks busy for write cycles: 3151509
7banks busy for read cycles: 8999647
7banks busy for write cycles: 5688773
8banks busy for read cycles: 19740783
8banks busy for write cycles: 35268734

CPU 0 Branch Prediction Accuracy: 99.9423% MPKI: 0.088365 Average ROB Occupancy at Mispredict: 117.306
Branch types
NOT_BRANCH: 169393846 84.6969%
BRANCH_DIRECT_JUMP: 1656182 0.828091%
BRANCH_INDIRECT: 9984753 4.99238%
BRANCH_CONDITIONAL: 12129382 6.06469%
BRANCH_DIRECT_CALL: 2821015 1.41051%
BRANCH_INDIRECT_CALL: 596869 0.298434%
BRANCH_RETURN: 3417890 1.70894%
BRANCH_OTHER: 0 0%

DRAM PAGES: 1048576
Allocated PAGES: 22424
