
*** ChampSim Multicore Out-of-Order Simulator ***

Warmup Instructions: 50000000
Simulation Instructions: 200000000
Number of CPUs: 1
LLC sets: 2048
LLC ways: 16
Off-chip DRAM Size: 4096 MB Channels: 1 Width: 64-bit Data Rate: 6400 MT/s
CPU 0 runs traces/spec2k17/server_018.champsimtrace.xz
.xz
BTB has LRU replacement policy
ITLB has LRU replacement policy
DTLB has LRU replacement policy
STLB has LRU replacement policy
L1I has LRU replacement policy
L1D has LRU replacement policy
Initialize SRRIP state for L2C
Initialize DRRIP state for LLC
Heartbeat CPU 0 instructions: 10000001 cycles: 2939791 heartbeat IPC: 3.4016 cumulative IPC: 3.4016 (Simulation time: 0 hr 0 min 29 sec) 
Heartbeat CPU 0 instructions: 20000000 cycles: 5879872 heartbeat IPC: 3.40127 cumulative IPC: 3.40143 (Simulation time: 0 hr 0 min 56 sec) 
Heartbeat CPU 0 instructions: 30000000 cycles: 8801842 heartbeat IPC: 3.42235 cumulative IPC: 3.40838 (Simulation time: 0 hr 1 min 22 sec) 
Heartbeat CPU 0 instructions: 40000001 cycles: 11666803 heartbeat IPC: 3.49045 cumulative IPC: 3.42853 (Simulation time: 0 hr 1 min 46 sec) 
Heartbeat CPU 0 instructions: 50000001 cycles: 14605904 heartbeat IPC: 3.4024 cumulative IPC: 3.42327 (Simulation time: 0 hr 2 min 12 sec) 

Warmup complete CPU 0 instructions: 50000001 cycles: 14605904 (Simulation time: 0 hr 2 min 12 sec) 

Heartbeat CPU 0 instructions: 60000001 cycles: 36458121 heartbeat IPC: 0.457619 cumulative IPC: 0.457619 (Simulation time: 0 hr 2 min 58 sec) 
Heartbeat CPU 0 instructions: 70000000 cycles: 58045566 heartbeat IPC: 0.463232 cumulative IPC: 0.460409 (Simulation time: 0 hr 3 min 45 sec) 
Heartbeat CPU 0 instructions: 80000002 cycles: 79683097 heartbeat IPC: 0.46216 cumulative IPC: 0.460991 (Simulation time: 0 hr 4 min 31 sec) 
Heartbeat CPU 0 instructions: 90000000 cycles: 101346922 heartbeat IPC: 0.461599 cumulative IPC: 0.461143 (Simulation time: 0 hr 5 min 16 sec) 
Heartbeat CPU 0 instructions: 100000001 cycles: 122119829 heartbeat IPC: 0.481396 cumulative IPC: 0.465056 (Simulation time: 0 hr 6 min 1 sec) 
*** Reached end of trace for Core: 0 Repeating trace: traces/spec2k17/server_018.champsimtrace.xz
Heartbeat CPU 0 instructions: 110000000 cycles: 142476884 heartbeat IPC: 0.49123 cumulative IPC: 0.469223 (Simulation time: 0 hr 6 min 46 sec) 
Heartbeat CPU 0 instructions: 120000000 cycles: 162900069 heartbeat IPC: 0.48964 cumulative IPC: 0.472035 (Simulation time: 0 hr 7 min 31 sec) 
Heartbeat CPU 0 instructions: 130000000 cycles: 183270394 heartbeat IPC: 0.49091 cumulative IPC: 0.474314 (Simulation time: 0 hr 8 min 15 sec) 
Heartbeat CPU 0 instructions: 140000003 cycles: 211325536 heartbeat IPC: 0.356441 cumulative IPC: 0.457504 (Simulation time: 0 hr 9 min 1 sec) 
Heartbeat CPU 0 instructions: 150000001 cycles: 237260419 heartbeat IPC: 0.385581 cumulative IPC: 0.449126 (Simulation time: 0 hr 9 min 47 sec) 
Heartbeat CPU 0 instructions: 160000001 cycles: 259497776 heartbeat IPC: 0.449694 cumulative IPC: 0.449178 (Simulation time: 0 hr 10 min 33 sec) 
Heartbeat CPU 0 instructions: 170000000 cycles: 281073430 heartbeat IPC: 0.463485 cumulative IPC: 0.450336 (Simulation time: 0 hr 11 min 18 sec) 
Heartbeat CPU 0 instructions: 180000000 cycles: 302133977 heartbeat IPC: 0.474821 cumulative IPC: 0.45213 (Simulation time: 0 hr 12 min 3 sec) 
Heartbeat CPU 0 instructions: 190000001 cycles: 323175849 heartbeat IPC: 0.475243 cumulative IPC: 0.453706 (Simulation time: 0 hr 12 min 48 sec) 
Heartbeat CPU 0 instructions: 200000001 cycles: 343982114 heartbeat IPC: 0.480624 cumulative IPC: 0.455406 (Simulation time: 0 hr 13 min 33 sec) 
Heartbeat CPU 0 instructions: 210000003 cycles: 364666860 heartbeat IPC: 0.483448 cumulative IPC: 0.457063 (Simulation time: 0 hr 14 min 18 sec) 
*** Reached end of trace for Core: 0 Repeating trace: traces/spec2k17/server_018.champsimtrace.xz
Heartbeat CPU 0 instructions: 220000000 cycles: 385276193 heartbeat IPC: 0.485217 cumulative IPC: 0.458629 (Simulation time: 0 hr 15 min 3 sec) 
Heartbeat CPU 0 instructions: 230000003 cycles: 405785577 heartbeat IPC: 0.487582 cumulative IPC: 0.460147 (Simulation time: 0 hr 15 min 49 sec) 
Heartbeat CPU 0 instructions: 240000000 cycles: 426281985 heartbeat IPC: 0.48789 cumulative IPC: 0.461528 (Simulation time: 0 hr 16 min 34 sec) 
Heartbeat CPU 0 instructions: 250000002 cycles: 457681620 heartbeat IPC: 0.318475 cumulative IPC: 0.45139 (Simulation time: 0 hr 17 min 22 sec) 
Finished CPU 0 instructions: 200000001 cycles: 443075716 cumulative IPC: 0.45139 (Simulation time: 0 hr 17 min 22 sec) 

ChampSim completed all CPUs

Region of Interest Statistics

CPU 0 cumulative IPC: 0.45139 instructions: 200000001 cycles: 443075716
ITLB TOTAL     ACCESS:   33588751  HIT:   32172717  MISS:    1416034  HIT %:    95.7842  MISS %:     4.2158   MPKI: 7.08017
ITLB LOAD TRANSLATION ACCESS:   33588751  HIT:   32172717  MISS:    1416034  HIT %:    95.7842  MISS %:     4.2158   MPKI: 7.08017
ITLB PREFETCH  REQUESTED:          0  ISSUED:          0  USEFUL:          0  USELESS:          0
ITLB USEFUL LOAD PREFETCHES:          0 PREFETCH ISSUED TO LOWER LEVEL:          0  ACCURACY: -nan
ITLB TIMELY PREFETCHES:          0 LATE PREFETCHES: 0 DROPPED PREFETCHES: 0
ITLB PREFETCHES SAME FILL-ORIGIN LEVEL: 0 DIFFERENT FILL-ORIGIN LEVEL: 0
ITLB AVERAGE MISS LATENCY: 9.39407 cycles
ITLB RQ	ACCESS:   40225912	FORWARD:          0	MERGED:    6180792	TO_CACHE:   34045120

DTLB TOTAL     ACCESS:   38758783  HIT:   37151843  MISS:    1606940  HIT %:     95.854  MISS %:      4.146   MPKI: 8.0347
DTLB LOAD TRANSLATION ACCESS:   38758783  HIT:   37151843  MISS:    1606940  HIT %:     95.854  MISS %:      4.146   MPKI: 8.0347
DTLB PREFETCH  REQUESTED:          0  ISSUED:          0  USEFUL:          0  USELESS:          0
DTLB USEFUL LOAD PREFETCHES:          0 PREFETCH ISSUED TO LOWER LEVEL:          0  ACCURACY: -nan
DTLB TIMELY PREFETCHES:          0 LATE PREFETCHES: 0 DROPPED PREFETCHES: 0
DTLB PREFETCHES SAME FILL-ORIGIN LEVEL: 0 DIFFERENT FILL-ORIGIN LEVEL: 0
DTLB AVERAGE MISS LATENCY: 17.5365 cycles
DTLB RQ	ACCESS:   58641948	FORWARD:          0	MERGED:   19523736	TO_CACHE:   39118212

STLB TOTAL     ACCESS:    9065660  HIT:    8917165  MISS:     148495  HIT %:     98.362  MISS %:    1.63799   MPKI: 0.742475
STLB LOAD TRANSLATION ACCESS:    3022973  HIT:    2878213  MISS:     144760  HIT %:    95.2113  MISS %:    4.78866   MPKI: 0.7238
STLB TRANSLATION FROM L1D PREFETCHER ACCESS:    6042687  HIT:    6038952  MISS:       3735  HIT %:    99.9382  MISS %:  0.0618103   MPKI: 0.018675
STLB PREFETCH  REQUESTED:          0  ISSUED:          0  USEFUL:       3186  USELESS:        547
STLB USEFUL LOAD PREFETCHES:       3186 PREFETCH ISSUED TO LOWER LEVEL:          0  ACCURACY: inf
STLB TIMELY PREFETCHES:       3186 LATE PREFETCHES: 1158 DROPPED PREFETCHES: 64899
STLB PREFETCHES SAME FILL-ORIGIN LEVEL: 0 DIFFERENT FILL-ORIGIN LEVEL: 0
STLB AVERAGE MISS LATENCY: 93819.6 cycles
STLB RQ	ACCESS:   11625392	FORWARD:          0	MERGED:    2491648	TO_CACHE:    9133744

STLB Hit, L1D data hit: 0
STLB Hit, L2C data hit: 0
STLB Hit, LLC data hit: 0
STLB Hit, LLC data miss: 0
STLB STLB hints to L2: 0
L1D TOTAL     ACCESS:   54803761  HIT:   48020965  MISS:    6782796  HIT %:    87.6235  MISS %:    12.3765   MPKI: 33.914
L1D LOAD      ACCESS:   26013595  HIT:   23006429  MISS:    3007166  HIT %:      88.44  MISS %:      11.56   MPKI: 15.0358
L1D RFO       ACCESS:   21499111  HIT:   18098589  MISS:    3400522  HIT %:     84.183  MISS %:     15.817   MPKI: 17.0026
L1D PREFETCH  ACCESS:    7291055  HIT:    6915947  MISS:     375108  HIT %:    94.8552  MISS %:    5.14477   MPKI: 1.87554
AGUS PREFETCH L1 MISS: 0
L1D PREFETCH  REQUESTED:   18806981  ISSUED:   18805974  USEFUL:     213464  USELESS:     161598
L1D USEFUL LOAD PREFETCHES:     213464 PREFETCH ISSUED TO LOWER LEVEL:     772084  ACCURACY: 27.6478
L1D TIMELY PREFETCHES:     213464 LATE PREFETCHES: 394721 DROPPED PREFETCHES: 69949
L1D PREFETCHES SAME FILL-ORIGIN LEVEL: 772084 DIFFERENT FILL-ORIGIN LEVEL: 0
L1D AVERAGE MISS LATENCY: 1.40021e+07 cycles
L1D RQ	ACCESS:   44274058	FORWARD:          0	MERGED:   17624413	TO_CACHE:   26389970
L1D WQ	ACCESS:   32470506	FORWARD:     291116	MERGED:     218528	TO_CACHE:   32251978
L1D PQ	ACCESS:   10203555	FORWARD:          0	MERGED:    1569695	TO_CACHE:    8602419

L1D UNIQUE REGIONS ACCESSED: 0
L1D REGIONS CONFLICTS: 0
L1D Cross Page Prefetch Requests: 3968070
L1D Same Page Prefetch Requests: 7872359
L1D ROI Sum of L1D PQ occupancy: 126759260
L1D PREFETCHES PUSHED FROM L2C: 0
L1I TOTAL     ACCESS:   37750992  HIT:   29293040  MISS:    8457952  HIT %:    77.5954  MISS %:    22.4046   MPKI: 42.2898
L1I LOAD      ACCESS:   37750992  HIT:   29293040  MISS:    8457952  HIT %:    77.5954  MISS %:    22.4046   MPKI: 42.2898
L1I PREFETCH  REQUESTED:          0  ISSUED:          0  USEFUL:          0  USELESS:          0
L1I USEFUL LOAD PREFETCHES:          0 PREFETCH ISSUED TO LOWER LEVEL:          0  ACCURACY: -nan
L1I TIMELY PREFETCHES:          0 LATE PREFETCHES: 0 DROPPED PREFETCHES: 0
L1I PREFETCHES SAME FILL-ORIGIN LEVEL: 0 DIFFERENT FILL-ORIGIN LEVEL: 0
L1I AVERAGE MISS LATENCY: 17.1429 cycles
L1I RQ	ACCESS:   58433004	FORWARD:          0	MERGED:   18207092	TO_CACHE:   40225912

BTB TOTAL     ACCESS:   25716646  HIT:   24056121  MISS:    1660525  HIT %:     93.543  MISS %:      6.457   MPKI: 8.30262
BTB BRANCH_DIRECT_JUMP	ACCESS:    1725252  HIT:    1715409  MISS:       9843
BTB BRANCH_INDIRECT	ACCESS:    9825525  HIT:    9169775  MISS:     655750
BTB BRANCH_CONDITIONAL	ACCESS:    7516536  HIT:    7503101  MISS:      13435
BTB BRANCH_DIRECT_CALL	ACCESS:    2628849  HIT:    2596393  MISS:      32456
BTB BRANCH_INDIRECT_CALL	ACCESS:     695837  HIT:     593013  MISS:     102824
BTB BRANCH_RETURN	ACCESS:    3324647  HIT:    2478430  MISS:     846217
BTB BRANCH_OTHER ACCESS:          0  HIT:          0  MISS:          0

L2C TOTAL     ACCESS:   19723570  HIT:   13075686  MISS:    6647884  HIT %:    66.2947  MISS %:    33.7053   MPKI: 33.2394
L2C LOAD      ACCESS:   11070313  HIT:    8544109  MISS:    2526204  HIT %:    77.1804  MISS %:    22.8196   MPKI: 12.631
L2C DATA LOAD MPKI: 9.96449
L2C INSTRUCTION LOAD MPKI: 2.66652
L2C RFO       ACCESS:    3398249  HIT:     140621  MISS:    3257628  HIT %:    4.13804  MISS %:     95.862   MPKI: 16.2881
L2C PREFETCH  ACCESS:     772065  HIT:     166058  MISS:     606007  HIT %:    21.5083  MISS %:    78.4917   MPKI: 3.03003
AGUS PREFETCH L1 MISS: 0
L2C DATA PREFETCH MPKI: 3.03003
L2C INSTRUCTION PREFETCH MPKI: 0
L2C WRITEBACK ACCESS:    4219180  HIT:    4072117  MISS:     147063  HIT %:    96.5144  MISS %:    3.48558   MPKI: 0.735315
L2C LOAD TRANSLATION ACCESS:     171350  HIT:      78333  MISS:      93017  HIT %:    45.7152  MISS %:    54.2848   MPKI: 0.465085
L2C TRANSLATION FROM L1D PREFETCHER ACCESS:      92413  HIT:      74448  MISS:      17965  HIT %:    80.5601  MISS %:    19.4399   MPKI: 0.089825
L2C PREFETCH  REQUESTED:          0  ISSUED:          0  USEFUL:      24991  USELESS:     599063
L2C USEFUL LOAD PREFETCHES:      24991 PREFETCH ISSUED TO LOWER LEVEL:     606007  ACCURACY: 4.12388
L2C TIMELY PREFETCHES:      24991 LATE PREFETCHES: 0 DROPPED PREFETCHES: 0
L2C PREFETCHES SAME FILL-ORIGIN LEVEL: 0 DIFFERENT FILL-ORIGIN LEVEL: 0
L2C AVERAGE MISS LATENCY: 171.877 cycles
L2C RQ	ACCESS:   14732428	FORWARD:          0	MERGED:          0	TO_CACHE:   14732326
L2C WQ	ACCESS:    4219180	FORWARD:        121	MERGED:          0	TO_CACHE:    4219180
L2C PQ	ACCESS:     772084	FORWARD:          0	MERGED:          0	TO_CACHE:     772065

L2C Instructions Evicting Data 483196
L2C Translations Evicting Data 100486
L2C Data Evicting Data 5286629
L2C Instructions Evicting Instructions 41604
L2C Translations Evicting Instructions 8365
L2C Data Evicting Instructions 471341
L2C Instructions Evicting Translations 8505
L2C Translations Evicting Translations 2131
L2C Data Evicting Translations 98564
L2C Dense regions hint from L2: 0
PSCL5 TOTAL     ACCESS:     207727  HIT:     207727  MISS:          0  HIT %:        100  MISS %:          0   MPKI: 0
PSCL5 LOAD TRANSLATION ACCESS:     143602  HIT:     143602  MISS:          0  HIT %:        100  MISS %:          0   MPKI: 0
PSCL5 TRANSLATION FROM L1D PREFETCHER ACCESS:      64125  HIT:      64125  MISS:          0  HIT %:        100  MISS %:          0   MPKI: 0
PSCL5 PREFETCH  REQUESTED:          0  ISSUED:          0  USEFUL:          0  USELESS:          0
PSCL5 USEFUL LOAD PREFETCHES:          0 PREFETCH ISSUED TO LOWER LEVEL:          0  ACCURACY: -nan
PSCL5 TIMELY PREFETCHES:          0 LATE PREFETCHES: 0 DROPPED PREFETCHES: 0
PSCL5 PREFETCHES SAME FILL-ORIGIN LEVEL: 0 DIFFERENT FILL-ORIGIN LEVEL: 0

PSCL4 TOTAL     ACCESS:     178410  HIT:     178026  MISS:        384  HIT %:    99.7848  MISS %:   0.215235   MPKI: 0.00192
PSCL4 LOAD TRANSLATION ACCESS:     137579  HIT:     137195  MISS:        384  HIT %:    99.7209  MISS %:   0.279112   MPKI: 0.00192
PSCL4 TRANSLATION FROM L1D PREFETCHER ACCESS:      40831  HIT:      40831  MISS:          0  HIT %:        100  MISS %:          0   MPKI: 0
PSCL4 PREFETCH  REQUESTED:          0  ISSUED:          0  USEFUL:          0  USELESS:          0
PSCL4 USEFUL LOAD PREFETCHES:          0 PREFETCH ISSUED TO LOWER LEVEL:          0  ACCURACY: -nan
PSCL4 TIMELY PREFETCHES:          0 LATE PREFETCHES: 0 DROPPED PREFETCHES: 0
PSCL4 PREFETCHES SAME FILL-ORIGIN LEVEL: 0 DIFFERENT FILL-ORIGIN LEVEL: 0

PSCL3 TOTAL     ACCESS:     184394  HIT:     184002  MISS:        392  HIT %:    99.7874  MISS %:   0.212588   MPKI: 0.00196
PSCL3 LOAD TRANSLATION ACCESS:     143536  HIT:     143144  MISS:        392  HIT %:    99.7269  MISS %:   0.273102   MPKI: 0.00196
PSCL3 TRANSLATION FROM L1D PREFETCHER ACCESS:      40858  HIT:      40858  MISS:          0  HIT %:        100  MISS %:          0   MPKI: 0
PSCL3 PREFETCH  REQUESTED:          0  ISSUED:          0  USEFUL:          0  USELESS:          0
PSCL3 USEFUL LOAD PREFETCHES:          0 PREFETCH ISSUED TO LOWER LEVEL:          0  ACCURACY: -nan
PSCL3 TIMELY PREFETCHES:          0 LATE PREFETCHES: 0 DROPPED PREFETCHES: 0
PSCL3 PREFETCHES SAME FILL-ORIGIN LEVEL: 0 DIFFERENT FILL-ORIGIN LEVEL: 0

PSCL2 TOTAL     ACCESS:     164864  HIT:     137095  MISS:      27769  HIT %:    83.1564  MISS %:    16.8436   MPKI: 0.138845
PSCL2 LOAD TRANSLATION ACCESS:     144355  HIT:     116586  MISS:      27769  HIT %:    80.7634  MISS %:    19.2366   MPKI: 0.138845
PSCL2 TRANSLATION FROM L1D PREFETCHER ACCESS:      20509  HIT:      20509  MISS:          0  HIT %:        100  MISS %:          0   MPKI: 0
PSCL2 PREFETCH  REQUESTED:          0  ISSUED:          0  USEFUL:          0  USELESS:          0
PSCL2 USEFUL LOAD PREFETCHES:          0 PREFETCH ISSUED TO LOWER LEVEL:          0  ACCURACY: -nan
PSCL2 TIMELY PREFETCHES:          0 LATE PREFETCHES: 0 DROPPED PREFETCHES: 0
PSCL2 PREFETCHES SAME FILL-ORIGIN LEVEL: 0 DIFFERENT FILL-ORIGIN LEVEL: 0

LLC TOTAL     ACCESS:   10425742  HIT:    4314380  MISS:    6111362  HIT %:     41.382  MISS %:     58.618   MPKI: 30.5568
LLC LOAD      ACCESS:    2526204  HIT:    1371268  MISS:    1154936  HIT %:    54.2818  MISS %:    45.7182   MPKI: 5.77468
LLC RFO       ACCESS:    3257612  HIT:     805673  MISS:    2451939  HIT %:     24.732  MISS %:     75.268   MPKI: 12.2597
LLC PREFETCH  ACCESS:     606007  HIT:     109929  MISS:     496078  HIT %:    18.1399  MISS %:    81.8601   MPKI: 2.48039
AGUS PREFETCH L1 MISS: 0
LLC WRITEBACK ACCESS:    3924937  HIT:    1960803  MISS:    1964134  HIT %:    49.9576  MISS %:    50.0424   MPKI: 9.82067
LLC LOAD TRANSLATION ACCESS:      93017  HIT:      56609  MISS:      36408  HIT %:    60.8588  MISS %:    39.1412   MPKI: 0.18204
LLC TRANSLATION FROM L1D PREFETCHER ACCESS:      17965  HIT:      10098  MISS:       7867  HIT %:    56.2093  MISS %:    43.7907   MPKI: 0.039335
LLC PREFETCH  REQUESTED:          0  ISSUED:          0  USEFUL:       5436  USELESS:     502668
LLC USEFUL LOAD PREFETCHES:       5436 PREFETCH ISSUED TO LOWER LEVEL:     496078  ACCURACY: 1.0958
LLC TIMELY PREFETCHES:       5436 LATE PREFETCHES: 0 DROPPED PREFETCHES: 0
LLC PREFETCHES SAME FILL-ORIGIN LEVEL: 0 DIFFERENT FILL-ORIGIN LEVEL: 0
LLC AVERAGE MISS LATENCY: 154.647 cycles
LLC RQ	ACCESS:    5894814	FORWARD:          0	MERGED:          0	TO_CACHE:    5894798
LLC WQ	ACCESS:    3924938	FORWARD:         16	MERGED:          0	TO_CACHE:    3924938
LLC PQ	ACCESS:     606007	FORWARD:          0	MERGED:          0	TO_CACHE:     606007

LLC Dense regions hint to LLC: 0

RAW hits: 2576347
Loads Generated: 46850405
Loads sent to L1D: 44274058
Stores Generated: 32470487
Stores sent to L1D: 32470506
Major fault: 0 Minor fault: 22612
Allocated PAGES: 22612
Completed 

DRAM Statistics
 CHANNEL 0
 RQ ROW_BUFFER_HIT:    1645575  ROW_BUFFER_MISS:    2501264
 DBUS_CONGESTED:       1683
 WQ ROW_BUFFER_HIT:     600139  ROW_BUFFER_MISS:    2127601  FULL:      29914

 AVG_CONGESTED_CYCLE: 3
 All warmup complete: 2
Channel 0 Bank busy for read cycles: 0
Channel 0 Bank busy for write cycles: 0
Channel 0
Rank 0
0banks busy for read cycles: 163359166
0banks busy for write cycles: 270032
1banks busy for read cycles: 71506021
1banks busy for write cycles: 40834150
2banks busy for read cycles: 23375035
2banks busy for write cycles: 19129257
3banks busy for read cycles: 15308311
3banks busy for write cycles: 9898897
4banks busy for read cycles: 5686932
4banks busy for write cycles: 5869113
5banks busy for read cycles: 4963471
5banks busy for write cycles: 3956992
6banks busy for read cycles: 5863587
6banks busy for write cycles: 3342135
7banks busy for read cycles: 8823505
7banks busy for write cycles: 5583028
8banks busy for read cycles: 19604949
8banks busy for write cycles: 35701136

CPU 0 Branch Prediction Accuracy: 99.9405% MPKI: 0.09271 Average ROB Occupancy at Mispredict: 112.259
Branch types
NOT_BRANCH: 168823613 84.4118%
BRANCH_DIRECT_JUMP: 1725252 0.862626%
BRANCH_INDIRECT: 9825525 4.91276%
BRANCH_CONDITIONAL: 12976223 6.48811%
BRANCH_DIRECT_CALL: 2628849 1.31442%
BRANCH_INDIRECT_CALL: 695837 0.347918%
BRANCH_RETURN: 3324647 1.66232%
BRANCH_OTHER: 0 0%

DRAM PAGES: 1048576
Allocated PAGES: 22612
