
*** ChampSim Multicore Out-of-Order Simulator ***

Warmup Instructions: 50000000
Simulation Instructions: 200000000
Number of CPUs: 1
LLC sets: 2048
LLC ways: 16
Off-chip DRAM Size: 4096 MB Channels: 1 Width: 64-bit Data Rate: 6400 MT/s
CPU 0 runs traces/spec2k17/srv_55.champsimtrace.xz
.xz
BTB has LRU replacement policy
ITLB has LRU replacement policy
DTLB has LRU replacement policy
STLB has LRU replacement policy
L1I has LRU replacement policy
L1D has LRU replacement policy
Initialize SRRIP state for L2C
Initialize DRRIP state for LLC
Heartbeat CPU 0 instructions: 10000000 cycles: 2859902 heartbeat IPC: 3.49662 cumulative IPC: 3.49662 (Simulation time: 0 hr 0 min 25 sec) 
Heartbeat CPU 0 instructions: 20000001 cycles: 5725193 heartbeat IPC: 3.49005 cumulative IPC: 3.49333 (Simulation time: 0 hr 0 min 49 sec) 
Heartbeat CPU 0 instructions: 30000001 cycles: 8570543 heartbeat IPC: 3.51451 cumulative IPC: 3.50036 (Simulation time: 0 hr 1 min 14 sec) 
*** Reached end of trace for Core: 0 Repeating trace: traces/spec2k17/srv_55.champsimtrace.xz
Heartbeat CPU 0 instructions: 40000000 cycles: 11434192 heartbeat IPC: 3.49205 cumulative IPC: 3.49828 (Simulation time: 0 hr 1 min 38 sec) 
Heartbeat CPU 0 instructions: 50000002 cycles: 14289676 heartbeat IPC: 3.50203 cumulative IPC: 3.49903 (Simulation time: 0 hr 2 min 2 sec) 

Warmup complete CPU 0 instructions: 50000002 cycles: 14289676 (Simulation time: 0 hr 2 min 2 sec) 

Heartbeat CPU 0 instructions: 60000001 cycles: 37005009 heartbeat IPC: 0.440231 cumulative IPC: 0.440231 (Simulation time: 0 hr 2 min 38 sec) 
*** Reached end of trace for Core: 0 Repeating trace: traces/spec2k17/srv_55.champsimtrace.xz
Heartbeat CPU 0 instructions: 70000000 cycles: 58120330 heartbeat IPC: 0.47359 cumulative IPC: 0.456302 (Simulation time: 0 hr 3 min 13 sec) 
Heartbeat CPU 0 instructions: 80000003 cycles: 82250746 heartbeat IPC: 0.414415 cumulative IPC: 0.441429 (Simulation time: 0 hr 3 min 49 sec) 
Heartbeat CPU 0 instructions: 90000000 cycles: 103557677 heartbeat IPC: 0.469331 cumulative IPC: 0.448089 (Simulation time: 0 hr 4 min 23 sec) 
*** Reached end of trace for Core: 0 Repeating trace: traces/spec2k17/srv_55.champsimtrace.xz
Heartbeat CPU 0 instructions: 100000003 cycles: 126407810 heartbeat IPC: 0.437634 cumulative IPC: 0.445958 (Simulation time: 0 hr 4 min 55 sec) 
Heartbeat CPU 0 instructions: 110000000 cycles: 149719896 heartbeat IPC: 0.428962 cumulative IPC: 0.443033 (Simulation time: 0 hr 5 min 28 sec) 
Heartbeat CPU 0 instructions: 120000003 cycles: 171927842 heartbeat IPC: 0.450289 cumulative IPC: 0.444055 (Simulation time: 0 hr 6 min 0 sec) 
*** Reached end of trace for Core: 0 Repeating trace: traces/spec2k17/srv_55.champsimtrace.xz
Heartbeat CPU 0 instructions: 130000000 cycles: 192942289 heartbeat IPC: 0.475863 cumulative IPC: 0.447796 (Simulation time: 0 hr 6 min 32 sec) 
Heartbeat CPU 0 instructions: 140000002 cycles: 216626886 heartbeat IPC: 0.422215 cumulative IPC: 0.444802 (Simulation time: 0 hr 7 min 5 sec) 
Heartbeat CPU 0 instructions: 150000003 cycles: 238549191 heartbeat IPC: 0.456156 cumulative IPC: 0.445912 (Simulation time: 0 hr 7 min 37 sec) 
*** Reached end of trace for Core: 0 Repeating trace: traces/spec2k17/srv_55.champsimtrace.xz
Heartbeat CPU 0 instructions: 160000001 cycles: 261175718 heartbeat IPC: 0.441959 cumulative IPC: 0.44555 (Simulation time: 0 hr 8 min 10 sec) 
Heartbeat CPU 0 instructions: 170000000 cycles: 285024037 heartbeat IPC: 0.419317 cumulative IPC: 0.443239 (Simulation time: 0 hr 8 min 43 sec) 
Heartbeat CPU 0 instructions: 180000000 cycles: 305369148 heartbeat IPC: 0.491519 cumulative IPC: 0.446613 (Simulation time: 0 hr 9 min 14 sec) 
*** Reached end of trace for Core: 0 Repeating trace: traces/spec2k17/srv_55.champsimtrace.xz
Heartbeat CPU 0 instructions: 190000002 cycles: 327575518 heartbeat IPC: 0.450321 cumulative IPC: 0.446876 (Simulation time: 0 hr 9 min 47 sec) 
Heartbeat CPU 0 instructions: 200000000 cycles: 352572690 heartbeat IPC: 0.400045 cumulative IPC: 0.443416 (Simulation time: 0 hr 10 min 20 sec) 
Heartbeat CPU 0 instructions: 210000000 cycles: 373462694 heartbeat IPC: 0.478698 cumulative IPC: 0.445468 (Simulation time: 0 hr 10 min 52 sec) 
*** Reached end of trace for Core: 0 Repeating trace: traces/spec2k17/srv_55.champsimtrace.xz
Heartbeat CPU 0 instructions: 220000000 cycles: 395259873 heartbeat IPC: 0.458775 cumulative IPC: 0.446229 (Simulation time: 0 hr 11 min 25 sec) 
Heartbeat CPU 0 instructions: 230000001 cycles: 418995500 heartbeat IPC: 0.421308 cumulative IPC: 0.444768 (Simulation time: 0 hr 11 min 58 sec) 
Heartbeat CPU 0 instructions: 240000003 cycles: 441051086 heartbeat IPC: 0.4534 cumulative IPC: 0.445214 (Simulation time: 0 hr 12 min 30 sec) 
*** Reached end of trace for Core: 0 Repeating trace: traces/spec2k17/srv_55.champsimtrace.xz
Heartbeat CPU 0 instructions: 250000001 cycles: 463312036 heartbeat IPC: 0.449217 cumulative IPC: 0.445412 (Simulation time: 0 hr 13 min 3 sec) 
Finished CPU 0 instructions: 200000000 cycles: 449022377 cumulative IPC: 0.445412 (Simulation time: 0 hr 13 min 3 sec) 

ChampSim completed all CPUs

Region of Interest Statistics

CPU 0 cumulative IPC: 0.445412 instructions: 200000000 cycles: 449022377
ITLB TOTAL     ACCESS:   34474538  HIT:   33631136  MISS:     843402  HIT %:    97.5536  MISS %:    2.44645   MPKI: 4.21701
ITLB LOAD TRANSLATION ACCESS:   34474538  HIT:   33631136  MISS:     843402  HIT %:    97.5536  MISS %:    2.44645   MPKI: 4.21701
ITLB PREFETCH  REQUESTED:          0  ISSUED:          0  USEFUL:          0  USELESS:          0
ITLB USEFUL LOAD PREFETCHES:          0 PREFETCH ISSUED TO LOWER LEVEL:          0  ACCURACY: -nan
ITLB TIMELY PREFETCHES:          0 LATE PREFETCHES: 0 DROPPED PREFETCHES: 0
ITLB PREFETCHES SAME FILL-ORIGIN LEVEL: 0 DIFFERENT FILL-ORIGIN LEVEL: 0
ITLB AVERAGE MISS LATENCY: 10.7699 cycles
ITLB RQ	ACCESS:   39355595	FORWARD:          0	MERGED:    4639640	TO_CACHE:   34715955

DTLB TOTAL     ACCESS:   39145014  HIT:   38248212  MISS:     896802  HIT %:     97.709  MISS %:    2.29097   MPKI: 4.48401
DTLB LOAD TRANSLATION ACCESS:   39145014  HIT:   38248212  MISS:     896802  HIT %:     97.709  MISS %:    2.29097   MPKI: 4.48401
DTLB PREFETCH  REQUESTED:          0  ISSUED:          0  USEFUL:          0  USELESS:          0
DTLB USEFUL LOAD PREFETCHES:          0 PREFETCH ISSUED TO LOWER LEVEL:          0  ACCURACY: -nan
DTLB TIMELY PREFETCHES:          0 LATE PREFETCHES: 0 DROPPED PREFETCHES: 0
DTLB PREFETCHES SAME FILL-ORIGIN LEVEL: 0 DIFFERENT FILL-ORIGIN LEVEL: 0
DTLB AVERAGE MISS LATENCY: 16.1848 cycles
DTLB RQ	ACCESS:   51462228	FORWARD:          0	MERGED:   12249343	TO_CACHE:   39212885

STLB TOTAL     ACCESS:    7843445  HIT:    7725786  MISS:     117659  HIT %:    98.4999  MISS %:    1.50009   MPKI: 0.588295
STLB LOAD TRANSLATION ACCESS:    1740204  HIT:    1626411  MISS:     113793  HIT %:    93.4609  MISS %:    6.53906   MPKI: 0.568965
STLB TRANSLATION FROM L1D PREFETCHER ACCESS:    6103241  HIT:    6099375  MISS:       3866  HIT %:    99.9367  MISS %:  0.0633434   MPKI: 0.01933
STLB PREFETCH  REQUESTED:          0  ISSUED:          0  USEFUL:       2850  USELESS:       1008
STLB USEFUL LOAD PREFETCHES:       2850 PREFETCH ISSUED TO LOWER LEVEL:          0  ACCURACY: inf
STLB TIMELY PREFETCHES:       2850 LATE PREFETCHES: 329 DROPPED PREFETCHES: 170916
STLB PREFETCHES SAME FILL-ORIGIN LEVEL: 0 DIFFERENT FILL-ORIGIN LEVEL: 0
STLB AVERAGE MISS LATENCY: 71.2995 cycles
STLB RQ	ACCESS:    9394052	FORWARD:          0	MERGED:    1379206	TO_CACHE:    8014846

STLB Hit, L1D data hit: 0
STLB Hit, L2C data hit: 0
STLB Hit, LLC data hit: 0
STLB Hit, LLC data miss: 0
STLB STLB hints to L2: 0
L1D TOTAL     ACCESS:   57638727  HIT:   55267382  MISS:    2371345  HIT %:    95.8858  MISS %:    4.11415   MPKI: 11.8567
L1D LOAD      ACCESS:   31584144  HIT:   30098026  MISS:    1486118  HIT %:    95.2947  MISS %:    4.70527   MPKI: 7.43059
L1D RFO       ACCESS:   18727636  HIT:   18019825  MISS:     707811  HIT %:    96.2205  MISS %:     3.7795   MPKI: 3.53905
L1D PREFETCH  ACCESS:    7326947  HIT:    7149531  MISS:     177416  HIT %:    97.5786  MISS %:    2.42142   MPKI: 0.88708
AGUS PREFETCH L1 MISS: 0
L1D PREFETCH  REQUESTED:   16577858  ISSUED:   16576228  USEFUL:      95749  USELESS:      81618
L1D USEFUL LOAD PREFETCHES:      95749 PREFETCH ISSUED TO LOWER LEVEL:     218517  ACCURACY: 43.8176
L1D TIMELY PREFETCHES:      95749 LATE PREFETCHES: 40750 DROPPED PREFETCHES: 195364
L1D PREFETCHES SAME FILL-ORIGIN LEVEL: 218517 DIFFERENT FILL-ORIGIN LEVEL: 0
L1D AVERAGE MISS LATENCY: 5.27236e+06 cycles
L1D RQ	ACCESS:   43673375	FORWARD:          0	MERGED:   11681670	TO_CACHE:   31711117
L1D WQ	ACCESS:   20006828	FORWARD:     291917	MERGED:     255717	TO_CACHE:   19751111
L1D PQ	ACCESS:    8922380	FORWARD:          0	MERGED:    1257203	TO_CACHE:    7653848

L1D UNIQUE REGIONS ACCESSED: 0
L1D REGIONS CONFLICTS: 0
L1D Cross Page Prefetch Requests: 5420527
L1D Same Page Prefetch Requests: 4722995
L1D ROI Sum of L1D PQ occupancy: 116980044
L1D PREFETCHES PUSHED FROM L2C: 0
L1I TOTAL     ACCESS:   38616840  HIT:   34061584  MISS:    4555256  HIT %:     88.204  MISS %:     11.796   MPKI: 22.7763
L1I LOAD      ACCESS:   38616840  HIT:   34061584  MISS:    4555256  HIT %:     88.204  MISS %:     11.796   MPKI: 22.7763
L1I PREFETCH  REQUESTED:          0  ISSUED:          0  USEFUL:          0  USELESS:          0
L1I USEFUL LOAD PREFETCHES:          0 PREFETCH ISSUED TO LOWER LEVEL:          0  ACCURACY: -nan
L1I TIMELY PREFETCHES:          0 LATE PREFETCHES: 0 DROPPED PREFETCHES: 0
L1I PREFETCHES SAME FILL-ORIGIN LEVEL: 0 DIFFERENT FILL-ORIGIN LEVEL: 0
L1I AVERAGE MISS LATENCY: 22.7596 cycles
L1I RQ	ACCESS:   60000647	FORWARD:          0	MERGED:   20645052	TO_CACHE:   39355595

BTB TOTAL     ACCESS:   31459038  HIT:   25911129  MISS:    5547909  HIT %:    82.3647  MISS %:    17.6353   MPKI: 27.7395
BTB BRANCH_DIRECT_JUMP	ACCESS:    3339084  HIT:    2970489  MISS:     368595
BTB BRANCH_INDIRECT	ACCESS:   11794430  HIT:    9601229  MISS:    2193201
BTB BRANCH_CONDITIONAL	ACCESS:   10201125  HIT:    9749251  MISS:     451874
BTB BRANCH_DIRECT_CALL	ACCESS:    2608135  HIT:    1905671  MISS:     702464
BTB BRANCH_INDIRECT_CALL	ACCESS:     454121  HIT:     253463  MISS:     200658
BTB BRANCH_RETURN	ACCESS:    3062143  HIT:    1431026  MISS:    1631117
BTB BRANCH_OTHER ACCESS:          0  HIT:          0  MISS:          0

L2C TOTAL     ACCESS:    8622220  HIT:    5943036  MISS:    2679184  HIT %:     68.927  MISS %:     31.073   MPKI: 13.3959
L2C LOAD      ACCESS:    6000597  HIT:    4031035  MISS:    1969562  HIT %:    67.1772  MISS %:    32.8228   MPKI: 9.84781
L2C DATA LOAD MPKI: 3.48808
L2C INSTRUCTION LOAD MPKI: 6.35973
L2C RFO       ACCESS:     707454  HIT:     290737  MISS:     416717  HIT %:    41.0962  MISS %:    58.9038   MPKI: 2.08358
L2C PREFETCH  ACCESS:     218515  HIT:     130904  MISS:      87611  HIT %:    59.9062  MISS %:    40.0938   MPKI: 0.438055
AGUS PREFETCH L1 MISS: 0
L2C DATA PREFETCH MPKI: 0.438055
L2C INSTRUCTION PREFETCH MPKI: 0
L2C WRITEBACK ACCESS:    1219485  HIT:    1135792  MISS:      83693  HIT %:     93.137  MISS %:    6.86298   MPKI: 0.418465
L2C LOAD TRANSLATION ACCESS:     172447  HIT:      78111  MISS:      94336  HIT %:    45.2957  MISS %:    54.7043   MPKI: 0.47168
L2C TRANSLATION FROM L1D PREFETCHER ACCESS:     303722  HIT:     276457  MISS:      27265  HIT %:     91.023  MISS %:    8.97696   MPKI: 0.136325
L2C PREFETCH  REQUESTED:          0  ISSUED:          0  USEFUL:      23997  USELESS:      90709
L2C USEFUL LOAD PREFETCHES:      23997 PREFETCH ISSUED TO LOWER LEVEL:      87611  ACCURACY: 27.3904
L2C TIMELY PREFETCHES:      23997 LATE PREFETCHES: 0 DROPPED PREFETCHES: 0
L2C PREFETCHES SAME FILL-ORIGIN LEVEL: 0 DIFFERENT FILL-ORIGIN LEVEL: 0
L2C AVERAGE MISS LATENCY: 54.0286 cycles
L2C RQ	ACCESS:    7184254	FORWARD:          0	MERGED:          0	TO_CACHE:    7184220
L2C WQ	ACCESS:    1219485	FORWARD:         36	MERGED:          0	TO_CACHE:    1219485
L2C PQ	ACCESS:     218517	FORWARD:          0	MERGED:          0	TO_CACHE:     218515

L2C Instructions Evicting Data 594298
L2C Translations Evicting Data 60346
L2C Data Evicting Data 590449
L2C Instructions Evicting Instructions 622382
L2C Translations Evicting Instructions 55766
L2C Data Evicting Instructions 553798
L2C Instructions Evicting Translations 55265
L2C Translations Evicting Translations 5489
L2C Data Evicting Translations 57698
L2C Dense regions hint from L2: 0
PSCL5 TOTAL     ACCESS:     288335  HIT:     288335  MISS:          0  HIT %:        100  MISS %:          0   MPKI: 0
PSCL5 LOAD TRANSLATION ACCESS:     113464  HIT:     113464  MISS:          0  HIT %:        100  MISS %:          0   MPKI: 0
PSCL5 TRANSLATION FROM L1D PREFETCHER ACCESS:     174871  HIT:     174871  MISS:          0  HIT %:        100  MISS %:          0   MPKI: 0
PSCL5 PREFETCH  REQUESTED:          0  ISSUED:          0  USEFUL:          0  USELESS:          0
PSCL5 USEFUL LOAD PREFETCHES:          0 PREFETCH ISSUED TO LOWER LEVEL:          0  ACCURACY: -nan
PSCL5 TIMELY PREFETCHES:          0 LATE PREFETCHES: 0 DROPPED PREFETCHES: 0
PSCL5 PREFETCHES SAME FILL-ORIGIN LEVEL: 0 DIFFERENT FILL-ORIGIN LEVEL: 0

PSCL4 TOTAL     ACCESS:     276157  HIT:     275607  MISS:        550  HIT %:    99.8008  MISS %:   0.199162   MPKI: 0.00275
PSCL4 LOAD TRANSLATION ACCESS:     112251  HIT:     111701  MISS:        550  HIT %:      99.51  MISS %:   0.489973   MPKI: 0.00275
PSCL4 TRANSLATION FROM L1D PREFETCHER ACCESS:     163906  HIT:     163906  MISS:          0  HIT %:        100  MISS %:          0   MPKI: 0
PSCL4 PREFETCH  REQUESTED:          0  ISSUED:          0  USEFUL:          0  USELESS:          0
PSCL4 USEFUL LOAD PREFETCHES:          0 PREFETCH ISSUED TO LOWER LEVEL:          0  ACCURACY: -nan
PSCL4 TIMELY PREFETCHES:          0 LATE PREFETCHES: 0 DROPPED PREFETCHES: 0
PSCL4 PREFETCHES SAME FILL-ORIGIN LEVEL: 0 DIFFERENT FILL-ORIGIN LEVEL: 0

PSCL3 TOTAL     ACCESS:     210717  HIT:     193962  MISS:      16755  HIT %:    92.0486  MISS %:    7.95142   MPKI: 0.083775
PSCL3 LOAD TRANSLATION ACCESS:     105994  HIT:      89239  MISS:      16755  HIT %:    84.1925  MISS %:    15.8075   MPKI: 0.083775
PSCL3 TRANSLATION FROM L1D PREFETCHER ACCESS:     104723  HIT:     104723  MISS:          0  HIT %:        100  MISS %:          0   MPKI: 0
PSCL3 PREFETCH  REQUESTED:          0  ISSUED:          0  USEFUL:          0  USELESS:          0
PSCL3 USEFUL LOAD PREFETCHES:          0 PREFETCH ISSUED TO LOWER LEVEL:          0  ACCURACY: -nan
PSCL3 TIMELY PREFETCHES:          0 LATE PREFETCHES: 0 DROPPED PREFETCHES: 0
PSCL3 PREFETCHES SAME FILL-ORIGIN LEVEL: 0 DIFFERENT FILL-ORIGIN LEVEL: 0

PSCL2 TOTAL     ACCESS:     151723  HIT:     106144  MISS:      45579  HIT %:    69.9591  MISS %:    30.0409   MPKI: 0.227895
PSCL2 LOAD TRANSLATION ACCESS:     116077  HIT:      70498  MISS:      45579  HIT %:    60.7338  MISS %:    39.2662   MPKI: 0.227895
PSCL2 TRANSLATION FROM L1D PREFETCHER ACCESS:      35646  HIT:      35646  MISS:          0  HIT %:        100  MISS %:          0   MPKI: 0
PSCL2 PREFETCH  REQUESTED:          0  ISSUED:          0  USEFUL:          0  USELESS:          0
PSCL2 USEFUL LOAD PREFETCHES:          0 PREFETCH ISSUED TO LOWER LEVEL:          0  ACCURACY: -nan
PSCL2 TIMELY PREFETCHES:          0 LATE PREFETCHES: 0 DROPPED PREFETCHES: 0
PSCL2 PREFETCHES SAME FILL-ORIGIN LEVEL: 0 DIFFERENT FILL-ORIGIN LEVEL: 0

LLC TOTAL     ACCESS:    3254965  HIT:    2887606  MISS:     367359  HIT %:    88.7139  MISS %:    11.2861   MPKI: 1.83679
LLC LOAD      ACCESS:    1969561  HIT:    1781021  MISS:     188540  HIT %:    90.4273  MISS %:    9.57269   MPKI: 0.9427
LLC RFO       ACCESS:     416714  HIT:     275786  MISS:     140928  HIT %:    66.1811  MISS %:    33.8189   MPKI: 0.70464
LLC PREFETCH  ACCESS:      87611  HIT:      66145  MISS:      21466  HIT %:    75.4985  MISS %:    24.5015   MPKI: 0.10733
AGUS PREFETCH L1 MISS: 0
LLC WRITEBACK ACCESS:     659478  HIT:     657520  MISS:       1958  HIT %:    99.7031  MISS %:   0.296901   MPKI: 0.00979
LLC LOAD TRANSLATION ACCESS:      94336  HIT:      82446  MISS:      11890  HIT %:    87.3961  MISS %:    12.6039   MPKI: 0.05945
LLC TRANSLATION FROM L1D PREFETCHER ACCESS:      27265  HIT:      24688  MISS:       2577  HIT %:    90.5483  MISS %:    9.45168   MPKI: 0.012885
LLC PREFETCH  REQUESTED:          0  ISSUED:          0  USEFUL:       2355  USELESS:      20882
LLC USEFUL LOAD PREFETCHES:       2355 PREFETCH ISSUED TO LOWER LEVEL:      21466  ACCURACY: 10.9708
LLC TIMELY PREFETCHES:       2355 LATE PREFETCHES: 0 DROPPED PREFETCHES: 0
LLC PREFETCHES SAME FILL-ORIGIN LEVEL: 0 DIFFERENT FILL-ORIGIN LEVEL: 0
LLC AVERAGE MISS LATENCY: 182.073 cycles
LLC RQ	ACCESS:    2507880	FORWARD:          0	MERGED:          0	TO_CACHE:    2507876
LLC WQ	ACCESS:     659478	FORWARD:          4	MERGED:          0	TO_CACHE:     659478
LLC PQ	ACCESS:      87611	FORWARD:          0	MERGED:          0	TO_CACHE:      87611

LLC Dense regions hint to LLC: 0

RAW hits: 1943083
Loads Generated: 45616458
Loads sent to L1D: 43673375
Stores Generated: 20006815
Stores sent to L1D: 20006828
Major fault: 0 Minor fault: 5873
Allocated PAGES: 5873
Completed 

DRAM Statistics
 CHANNEL 0
 RQ ROW_BUFFER_HIT:      78221  ROW_BUFFER_MISS:     287180
 DBUS_CONGESTED:        115
 WQ ROW_BUFFER_HIT:      33962  ROW_BUFFER_MISS:     197660  FULL:          0

 AVG_CONGESTED_CYCLE: 4
 All warmup complete: 2
Channel 0 Bank busy for read cycles: 0
Channel 0 Bank busy for write cycles: 0
Channel 0
Rank 0
0banks busy for read cycles: 392479362
0banks busy for write cycles: 108747
1banks busy for read cycles: 26397195
1banks busy for write cycles: 15644291
2banks busy for read cycles: 4545754
2banks busy for write cycles: 3795976
3banks busy for read cycles: 996917
3banks busy for write cycles: 1355890
4banks busy for read cycles: 263429
4banks busy for write cycles: 577965
5banks busy for read cycles: 144658
5banks busy for write cycles: 307536
6banks busy for read cycles: 124288
6banks busy for write cycles: 203072
7banks busy for read cycles: 168550
7banks busy for write cycles: 222993
8banks busy for read cycles: 616332
8banks busy for write cycles: 1069423

CPU 0 Branch Prediction Accuracy: 99.6074% MPKI: 0.711955 Average ROB Occupancy at Mispredict: 30.7047
Branch types
NOT_BRANCH: 163727756 81.8639%
BRANCH_DIRECT_JUMP: 3339084 1.66954%
BRANCH_INDIRECT: 11794430 5.89722%
BRANCH_CONDITIONAL: 15014280 7.50714%
BRANCH_DIRECT_CALL: 2608135 1.30407%
BRANCH_INDIRECT_CALL: 454121 0.22706%
BRANCH_RETURN: 3062143 1.53107%
BRANCH_OTHER: 0 0%

DRAM PAGES: 1048576
Allocated PAGES: 5873
