
*** ChampSim Multicore Out-of-Order Simulator ***

Warmup Instructions: 50000000
Simulation Instructions: 200000000
Number of CPUs: 1
LLC sets: 2048
LLC ways: 16
Off-chip DRAM Size: 4096 MB Channels: 1 Width: 64-bit Data Rate: 6400 MT/s
CPU 0 runs traces/spec2k17/srv_3.champsimtrace.xz
.xz
BTB has LRU replacement policy
ITLB has LRU replacement policy
DTLB has LRU replacement policy
STLB has LRU replacement policy
L1I has LRU replacement policy
L1D has LRU replacement policy
Initialize SRRIP state for L2C
Initialize DRRIP state for LLC
Heartbeat CPU 0 instructions: 10000003 cycles: 2770086 heartbeat IPC: 3.61 cumulative IPC: 3.61 (Simulation time: 0 hr 0 min 24 sec) 
Heartbeat CPU 0 instructions: 20000001 cycles: 5535850 heartbeat IPC: 3.61564 cumulative IPC: 3.61281 (Simulation time: 0 hr 0 min 47 sec) 
Heartbeat CPU 0 instructions: 30000000 cycles: 8304141 heartbeat IPC: 3.61234 cumulative IPC: 3.61266 (Simulation time: 0 hr 1 min 11 sec) 
*** Reached end of trace for Core: 0 Repeating trace: traces/spec2k17/srv_3.champsimtrace.xz
Heartbeat CPU 0 instructions: 40000001 cycles: 11066200 heartbeat IPC: 3.62049 cumulative IPC: 3.61461 (Simulation time: 0 hr 1 min 35 sec) 
Heartbeat CPU 0 instructions: 50000002 cycles: 13834630 heartbeat IPC: 3.61216 cumulative IPC: 3.61412 (Simulation time: 0 hr 1 min 59 sec) 

Warmup complete CPU 0 instructions: 50000002 cycles: 13834630 (Simulation time: 0 hr 1 min 59 sec) 

Heartbeat CPU 0 instructions: 60000001 cycles: 35705696 heartbeat IPC: 0.457225 cumulative IPC: 0.457225 (Simulation time: 0 hr 2 min 36 sec) 
*** Reached end of trace for Core: 0 Repeating trace: traces/spec2k17/srv_3.champsimtrace.xz
Heartbeat CPU 0 instructions: 70000000 cycles: 57306835 heartbeat IPC: 0.462939 cumulative IPC: 0.460064 (Simulation time: 0 hr 3 min 14 sec) 
Heartbeat CPU 0 instructions: 80000000 cycles: 79652815 heartbeat IPC: 0.447508 cumulative IPC: 0.455801 (Simulation time: 0 hr 3 min 50 sec) 
Heartbeat CPU 0 instructions: 90000003 cycles: 101317075 heartbeat IPC: 0.46159 cumulative IPC: 0.457235 (Simulation time: 0 hr 4 min 25 sec) 
*** Reached end of trace for Core: 0 Repeating trace: traces/spec2k17/srv_3.champsimtrace.xz
Heartbeat CPU 0 instructions: 100000003 cycles: 123036426 heartbeat IPC: 0.460419 cumulative IPC: 0.457868 (Simulation time: 0 hr 5 min 1 sec) 
Heartbeat CPU 0 instructions: 110000000 cycles: 145002231 heartbeat IPC: 0.455253 cumulative IPC: 0.45743 (Simulation time: 0 hr 5 min 36 sec) 
Heartbeat CPU 0 instructions: 120000001 cycles: 166912874 heartbeat IPC: 0.456399 cumulative IPC: 0.457282 (Simulation time: 0 hr 6 min 11 sec) 
*** Reached end of trace for Core: 0 Repeating trace: traces/spec2k17/srv_3.champsimtrace.xz
Heartbeat CPU 0 instructions: 130000002 cycles: 188597795 heartbeat IPC: 0.46115 cumulative IPC: 0.457762 (Simulation time: 0 hr 6 min 47 sec) 
Heartbeat CPU 0 instructions: 140000001 cycles: 210670796 heartbeat IPC: 0.453042 cumulative IPC: 0.457233 (Simulation time: 0 hr 7 min 23 sec) 
Heartbeat CPU 0 instructions: 150000000 cycles: 232381204 heartbeat IPC: 0.460609 cumulative IPC: 0.457568 (Simulation time: 0 hr 7 min 59 sec) 
*** Reached end of trace for Core: 0 Repeating trace: traces/spec2k17/srv_3.champsimtrace.xz
Heartbeat CPU 0 instructions: 160000002 cycles: 253998133 heartbeat IPC: 0.4626 cumulative IPC: 0.458021 (Simulation time: 0 hr 8 min 34 sec) 
Heartbeat CPU 0 instructions: 170000003 cycles: 275842271 heartbeat IPC: 0.457789 cumulative IPC: 0.458002 (Simulation time: 0 hr 9 min 10 sec) 
Heartbeat CPU 0 instructions: 180000002 cycles: 297592304 heartbeat IPC: 0.459769 cumulative IPC: 0.458137 (Simulation time: 0 hr 9 min 46 sec) 
*** Reached end of trace for Core: 0 Repeating trace: traces/spec2k17/srv_3.champsimtrace.xz
Heartbeat CPU 0 instructions: 190000002 cycles: 319454221 heartbeat IPC: 0.457416 cumulative IPC: 0.458086 (Simulation time: 0 hr 10 min 22 sec) 
Heartbeat CPU 0 instructions: 200000001 cycles: 341012282 heartbeat IPC: 0.463864 cumulative IPC: 0.458467 (Simulation time: 0 hr 10 min 58 sec) 
Heartbeat CPU 0 instructions: 210000001 cycles: 362728563 heartbeat IPC: 0.460484 cumulative IPC: 0.458592 (Simulation time: 0 hr 11 min 34 sec) 
*** Reached end of trace for Core: 0 Repeating trace: traces/spec2k17/srv_3.champsimtrace.xz
Heartbeat CPU 0 instructions: 220000000 cycles: 384612933 heartbeat IPC: 0.456947 cumulative IPC: 0.458495 (Simulation time: 0 hr 12 min 9 sec) 
Heartbeat CPU 0 instructions: 230000001 cycles: 406159447 heartbeat IPC: 0.464112 cumulative IPC: 0.458804 (Simulation time: 0 hr 12 min 45 sec) 
Heartbeat CPU 0 instructions: 240000000 cycles: 428092058 heartbeat IPC: 0.455942 cumulative IPC: 0.458652 (Simulation time: 0 hr 13 min 21 sec) 
*** Reached end of trace for Core: 0 Repeating trace: traces/spec2k17/srv_3.champsimtrace.xz
Heartbeat CPU 0 instructions: 250000000 cycles: 449770897 heartbeat IPC: 0.461279 cumulative IPC: 0.458783 (Simulation time: 0 hr 13 min 58 sec) 
Finished CPU 0 instructions: 200000002 cycles: 435936268 cumulative IPC: 0.458783 (Simulation time: 0 hr 13 min 58 sec) 

ChampSim completed all CPUs

Region of Interest Statistics

CPU 0 cumulative IPC: 0.458783 instructions: 200000002 cycles: 435936268
ITLB TOTAL     ACCESS:   31554969  HIT:   30784823  MISS:     770146  HIT %:    97.5594  MISS %:    2.44065   MPKI: 3.85073
ITLB LOAD TRANSLATION ACCESS:   31554969  HIT:   30784823  MISS:     770146  HIT %:    97.5594  MISS %:    2.44065   MPKI: 3.85073
ITLB PREFETCH  REQUESTED:          0  ISSUED:          0  USEFUL:          0  USELESS:          0
ITLB USEFUL LOAD PREFETCHES:          0 PREFETCH ISSUED TO LOWER LEVEL:          0  ACCURACY: -nan
ITLB TIMELY PREFETCHES:          0 LATE PREFETCHES: 0 DROPPED PREFETCHES: 0
ITLB PREFETCHES SAME FILL-ORIGIN LEVEL: 0 DIFFERENT FILL-ORIGIN LEVEL: 0
ITLB AVERAGE MISS LATENCY: 13.8936 cycles
ITLB RQ	ACCESS:   38422963	FORWARD:          0	MERGED:    6673749	TO_CACHE:   31749214

DTLB TOTAL     ACCESS:   37035827  HIT:   34654564  MISS:    2381263  HIT %:    93.5704  MISS %:    6.42962   MPKI: 11.9063
DTLB LOAD TRANSLATION ACCESS:   37035827  HIT:   34654564  MISS:    2381263  HIT %:    93.5704  MISS %:    6.42962   MPKI: 11.9063
DTLB PREFETCH  REQUESTED:          0  ISSUED:          0  USEFUL:          0  USELESS:          0
DTLB USEFUL LOAD PREFETCHES:          0 PREFETCH ISSUED TO LOWER LEVEL:          0  ACCURACY: -nan
DTLB TIMELY PREFETCHES:          0 LATE PREFETCHES: 0 DROPPED PREFETCHES: 0
DTLB PREFETCHES SAME FILL-ORIGIN LEVEL: 0 DIFFERENT FILL-ORIGIN LEVEL: 0
DTLB AVERAGE MISS LATENCY: 13.4158 cycles
DTLB RQ	ACCESS:   47543681	FORWARD:          0	MERGED:   10364966	TO_CACHE:   37178715

STLB TOTAL     ACCESS:   11537614  HIT:   11201235  MISS:     336379  HIT %:    97.0845  MISS %:     2.9155   MPKI: 1.68189
STLB LOAD TRANSLATION ACCESS:    3151409  HIT:    2824175  MISS:     327234  HIT %:    89.6163  MISS %:    10.3837   MPKI: 1.63617
STLB TRANSLATION FROM L1D PREFETCHER ACCESS:    8386205  HIT:    8377060  MISS:       9145  HIT %:     99.891  MISS %:   0.109048   MPKI: 0.045725
STLB PREFETCH  REQUESTED:          0  ISSUED:          0  USEFUL:       7521  USELESS:       1624
STLB USEFUL LOAD PREFETCHES:       7521 PREFETCH ISSUED TO LOWER LEVEL:          0  ACCURACY: inf
STLB TIMELY PREFETCHES:       7521 LATE PREFETCHES: 2083 DROPPED PREFETCHES: 375022
STLB PREFETCHES SAME FILL-ORIGIN LEVEL: 0 DIFFERENT FILL-ORIGIN LEVEL: 0
STLB AVERAGE MISS LATENCY: 46.0457 cycles
STLB RQ	ACCESS:   13680295	FORWARD:          0	MERGED:    1763323	TO_CACHE:   11916972

STLB Hit, L1D data hit: 0
STLB Hit, L2C data hit: 0
STLB Hit, LLC data hit: 0
STLB Hit, LLC data miss: 0
STLB STLB hints to L2: 0
L1D TOTAL     ACCESS:   56971269  HIT:   54440278  MISS:    2530991  HIT %:    95.5574  MISS %:    4.44257   MPKI: 12.655
L1D LOAD      ACCESS:   27474952  HIT:   25492746  MISS:    1982206  HIT %:    92.7854  MISS %:    7.21459   MPKI: 9.91103
L1D RFO       ACCESS:   19551818  HIT:   19224736  MISS:     327082  HIT %:    98.3271  MISS %:     1.6729   MPKI: 1.63541
L1D PREFETCH  ACCESS:    9944499  HIT:    9722796  MISS:     221703  HIT %:    97.7706  MISS %:     2.2294   MPKI: 1.10851
AGUS PREFETCH L1 MISS: 0
L1D PREFETCH  REQUESTED:   22681296  ISSUED:   22678905  USEFUL:     136745  USELESS:      84941
L1D USEFUL LOAD PREFETCHES:     136745 PREFETCH ISSUED TO LOWER LEVEL:     288086  ACCURACY: 47.4667
L1D TIMELY PREFETCHES:     136745 LATE PREFETCHES: 66087 DROPPED PREFETCHES: 409692
L1D PREFETCHES SAME FILL-ORIGIN LEVEL: 288086 DIFFERENT FILL-ORIGIN LEVEL: 0
L1D AVERAGE MISS LATENCY: 7.87054e+06 cycles
L1D RQ	ACCESS:   42134524	FORWARD:          0	MERGED:   14299352	TO_CACHE:   27598724
L1D WQ	ACCESS:   20247469	FORWARD:     282501	MERGED:     302512	TO_CACHE:   19944957
L1D PQ	ACCESS:   12150019	FORWARD:          0	MERGED:    1575080	TO_CACHE:   10528886

L1D UNIQUE REGIONS ACCESSED: 0
L1D REGIONS CONFLICTS: 0
L1D Cross Page Prefetch Requests: 8880265
L1D Same Page Prefetch Requests: 5151814
L1D ROI Sum of L1D PQ occupancy: 162660586
L1D PREFETCHES PUSHED FROM L2C: 0
L1I TOTAL     ACCESS:   36626230  HIT:   31521668  MISS:    5104562  HIT %:    86.0631  MISS %:    13.9369   MPKI: 25.5228
L1I LOAD      ACCESS:   36626230  HIT:   31521668  MISS:    5104562  HIT %:    86.0631  MISS %:    13.9369   MPKI: 25.5228
L1I PREFETCH  REQUESTED:          0  ISSUED:          0  USEFUL:          0  USELESS:          0
L1I USEFUL LOAD PREFETCHES:          0 PREFETCH ISSUED TO LOWER LEVEL:          0  ACCURACY: -nan
L1I TIMELY PREFETCHES:          0 LATE PREFETCHES: 0 DROPPED PREFETCHES: 0
L1I PREFETCHES SAME FILL-ORIGIN LEVEL: 0 DIFFERENT FILL-ORIGIN LEVEL: 0
L1I AVERAGE MISS LATENCY: 25.1294 cycles
L1I RQ	ACCESS:   57285085	FORWARD:          0	MERGED:   18862122	TO_CACHE:   38422963

BTB TOTAL     ACCESS:   22232128  HIT:   17878921  MISS:    4353207  HIT %:    80.4193  MISS %:    19.5807   MPKI: 21.766
BTB BRANCH_DIRECT_JUMP	ACCESS:    1728930  HIT:    1486091  MISS:     242839
BTB BRANCH_INDIRECT	ACCESS:    9451764  HIT:    7328366  MISS:    2123398
BTB BRANCH_CONDITIONAL	ACCESS:    4727495  HIT:    4325130  MISS:     402365
BTB BRANCH_DIRECT_CALL	ACCESS:    2474151  HIT:    1996074  MISS:     478077
BTB BRANCH_INDIRECT_CALL	ACCESS:     687640  HIT:     649686  MISS:      37954
BTB BRANCH_RETURN	ACCESS:    3162148  HIT:    2093574  MISS:    1068574
BTB BRANCH_OTHER ACCESS:          0  HIT:          0  MISS:          0

L2C TOTAL     ACCESS:    9533613  HIT:    6381998  MISS:    3151615  HIT %:    66.9421  MISS %:    33.0579   MPKI: 15.7581
L2C LOAD      ACCESS:    7020559  HIT:    4366402  MISS:    2654157  HIT %:    62.1945  MISS %:    37.8055   MPKI: 13.2708
L2C DATA LOAD MPKI: 4.23608
L2C INSTRUCTION LOAD MPKI: 9.0347
L2C RFO       ACCESS:     326785  HIT:     184949  MISS:     141836  HIT %:    56.5965  MISS %:    43.4035   MPKI: 0.70918
L2C PREFETCH  ACCESS:     287991  HIT:     194739  MISS:      93252  HIT %:    67.6198  MISS %:    32.3802   MPKI: 0.46626
AGUS PREFETCH L1 MISS: 0
L2C DATA PREFETCH MPKI: 0.46626
L2C INSTRUCTION PREFETCH MPKI: 0
L2C WRITEBACK ACCESS:    1010382  HIT:     955416  MISS:      54966  HIT %:    94.5599  MISS %:    5.44012   MPKI: 0.27483
L2C LOAD TRANSLATION ACCESS:     426430  HIT:     253305  MISS:     173125  HIT %:    59.4013  MISS %:    40.5987   MPKI: 0.865625
L2C TRANSLATION FROM L1D PREFETCHER ACCESS:     461466  HIT:     427187  MISS:      34279  HIT %:    92.5717  MISS %:    7.42828   MPKI: 0.171395
L2C PREFETCH  REQUESTED:          0  ISSUED:          0  USEFUL:      27255  USELESS:     100169
L2C USEFUL LOAD PREFETCHES:      27255 PREFETCH ISSUED TO LOWER LEVEL:      93252  ACCURACY: 29.2273
L2C TIMELY PREFETCHES:      27255 LATE PREFETCHES: 0 DROPPED PREFETCHES: 0
L2C PREFETCHES SAME FILL-ORIGIN LEVEL: 0 DIFFERENT FILL-ORIGIN LEVEL: 0
L2C AVERAGE MISS LATENCY: 43.9801 cycles
L2C RQ	ACCESS:    8235366	FORWARD:          0	MERGED:          0	TO_CACHE:    8235243
L2C WQ	ACCESS:    1010382	FORWARD:        218	MERGED:          0	TO_CACHE:    1010382
L2C PQ	ACCESS:     288086	FORWARD:          0	MERGED:          0	TO_CACHE:     287991

L2C Instructions Evicting Data 638767
L2C Translations Evicting Data 73764
L2C Data Evicting Data 404700
L2C Instructions Evicting Instructions 1050177
L2C Translations Evicting Instructions 119883
L2C Data Evicting Instructions 604930
L2C Instructions Evicting Translations 117996
L2C Translations Evicting Translations 13757
L2C Data Evicting Translations 72675
L2C Dense regions hint from L2: 0
PSCL5 TOTAL     ACCESS:     623165  HIT:     623165  MISS:          0  HIT %:        100  MISS %:          0   MPKI: 0
PSCL5 LOAD TRANSLATION ACCESS:     325151  HIT:     325151  MISS:          0  HIT %:        100  MISS %:          0   MPKI: 0
PSCL5 TRANSLATION FROM L1D PREFETCHER ACCESS:     298014  HIT:     298014  MISS:          0  HIT %:        100  MISS %:          0   MPKI: 0
PSCL5 PREFETCH  REQUESTED:          0  ISSUED:          0  USEFUL:          0  USELESS:          0
PSCL5 USEFUL LOAD PREFETCHES:          0 PREFETCH ISSUED TO LOWER LEVEL:          0  ACCURACY: -nan
PSCL5 TIMELY PREFETCHES:          0 LATE PREFETCHES: 0 DROPPED PREFETCHES: 0
PSCL5 PREFETCHES SAME FILL-ORIGIN LEVEL: 0 DIFFERENT FILL-ORIGIN LEVEL: 0

PSCL4 TOTAL     ACCESS:     518835  HIT:     518645  MISS:        190  HIT %:    99.9634  MISS %:  0.0366205   MPKI: 0.00095
PSCL4 LOAD TRANSLATION ACCESS:     271535  HIT:     271345  MISS:        190  HIT %:      99.93  MISS %:  0.0699726   MPKI: 0.00095
PSCL4 TRANSLATION FROM L1D PREFETCHER ACCESS:     247300  HIT:     247300  MISS:          0  HIT %:        100  MISS %:          0   MPKI: 0
PSCL4 PREFETCH  REQUESTED:          0  ISSUED:          0  USEFUL:          0  USELESS:          0
PSCL4 USEFUL LOAD PREFETCHES:          0 PREFETCH ISSUED TO LOWER LEVEL:          0  ACCURACY: -nan
PSCL4 TIMELY PREFETCHES:          0 LATE PREFETCHES: 0 DROPPED PREFETCHES: 0
PSCL4 PREFETCHES SAME FILL-ORIGIN LEVEL: 0 DIFFERENT FILL-ORIGIN LEVEL: 0

PSCL3 TOTAL     ACCESS:     565330  HIT:     564760  MISS:        570  HIT %:    99.8992  MISS %:   0.100826   MPKI: 0.00285
PSCL3 LOAD TRANSLATION ACCESS:     324729  HIT:     324159  MISS:        570  HIT %:    99.8245  MISS %:   0.175531   MPKI: 0.00285
PSCL3 TRANSLATION FROM L1D PREFETCHER ACCESS:     240601  HIT:     240601  MISS:          0  HIT %:        100  MISS %:          0   MPKI: 0
PSCL3 PREFETCH  REQUESTED:          0  ISSUED:          0  USEFUL:          0  USELESS:          0
PSCL3 USEFUL LOAD PREFETCHES:          0 PREFETCH ISSUED TO LOWER LEVEL:          0  ACCURACY: -nan
PSCL3 TIMELY PREFETCHES:          0 LATE PREFETCHES: 0 DROPPED PREFETCHES: 0
PSCL3 PREFETCHES SAME FILL-ORIGIN LEVEL: 0 DIFFERENT FILL-ORIGIN LEVEL: 0

PSCL2 TOTAL     ACCESS:     373307  HIT:     267628  MISS:     105679  HIT %:    71.6911  MISS %:    28.3089   MPKI: 0.528395
PSCL2 LOAD TRANSLATION ACCESS:     330301  HIT:     224622  MISS:     105679  HIT %:    68.0052  MISS %:    31.9948   MPKI: 0.528395
PSCL2 TRANSLATION FROM L1D PREFETCHER ACCESS:      43006  HIT:      43006  MISS:          0  HIT %:        100  MISS %:          0   MPKI: 0
PSCL2 PREFETCH  REQUESTED:          0  ISSUED:          0  USEFUL:          0  USELESS:          0
PSCL2 USEFUL LOAD PREFETCHES:          0 PREFETCH ISSUED TO LOWER LEVEL:          0  ACCURACY: -nan
PSCL2 TIMELY PREFETCHES:          0 LATE PREFETCHES: 0 DROPPED PREFETCHES: 0
PSCL2 PREFETCHES SAME FILL-ORIGIN LEVEL: 0 DIFFERENT FILL-ORIGIN LEVEL: 0

LLC TOTAL     ACCESS:    3517728  HIT:    3215163  MISS:     302565  HIT %:    91.3989  MISS %:    8.60115   MPKI: 1.51282
LLC LOAD      ACCESS:    2654151  HIT:    2420004  MISS:     234147  HIT %:    91.1781  MISS %:    8.82192   MPKI: 1.17073
LLC RFO       ACCESS:     141836  HIT:      96895  MISS:      44941  HIT %:    68.3148  MISS %:    31.6852   MPKI: 0.224705
LLC PREFETCH  ACCESS:      93252  HIT:      84975  MISS:       8277  HIT %:    91.1241  MISS %:    8.87595   MPKI: 0.041385
AGUS PREFETCH L1 MISS: 0
LLC WRITEBACK ACCESS:     421085  HIT:     419056  MISS:       2029  HIT %:    99.5181  MISS %:    0.48185   MPKI: 0.010145
LLC LOAD TRANSLATION ACCESS:     173125  HIT:     161702  MISS:      11423  HIT %:    93.4019  MISS %:    6.59812   MPKI: 0.057115
LLC TRANSLATION FROM L1D PREFETCHER ACCESS:      34279  HIT:      32531  MISS:       1748  HIT %:    94.9007  MISS %:    5.09933   MPKI: 0.00874
LLC PREFETCH  REQUESTED:          0  ISSUED:          0  USEFUL:       1194  USELESS:       8524
LLC USEFUL LOAD PREFETCHES:       1194 PREFETCH ISSUED TO LOWER LEVEL:       8277  ACCURACY: 14.4255
LLC TIMELY PREFETCHES:       1194 LATE PREFETCHES: 0 DROPPED PREFETCHES: 0
LLC PREFETCHES SAME FILL-ORIGIN LEVEL: 0 DIFFERENT FILL-ORIGIN LEVEL: 0
LLC AVERAGE MISS LATENCY: 151.067 cycles
LLC RQ	ACCESS:    3003398	FORWARD:          0	MERGED:          0	TO_CACHE:    3003392
LLC WQ	ACCESS:     421085	FORWARD:          6	MERGED:          0	TO_CACHE:     421085
LLC PQ	ACCESS:      93252	FORWARD:          0	MERGED:          0	TO_CACHE:      93252

LLC Dense regions hint to LLC: 0

RAW hits: 2801676
Loads Generated: 44936202
Loads sent to L1D: 42134524
Stores Generated: 20247459
Stores sent to L1D: 20247469
Major fault: 0 Minor fault: 6094
Allocated PAGES: 6094
Completed 

DRAM Statistics
 CHANNEL 0
 RQ ROW_BUFFER_HIT:      58998  ROW_BUFFER_MISS:     241537
 DBUS_CONGESTED:        189
 WQ ROW_BUFFER_HIT:      32418  ROW_BUFFER_MISS:     179218  FULL:          0

 AVG_CONGESTED_CYCLE: 4
 All warmup complete: 2
Channel 0 Bank busy for read cycles: 0
Channel 0 Bank busy for write cycles: 0
Channel 0
Rank 0
0banks busy for read cycles: 379134798
0banks busy for write cycles: 117976
1banks busy for read cycles: 27849722
1banks busy for write cycles: 16623644
2banks busy for read cycles: 3719104
2banks busy for write cycles: 4034875
3banks busy for read cycles: 479769
3banks busy for write cycles: 1431814
4banks busy for read cycles: 215464
4banks busy for write cycles: 771816
5banks busy for read cycles: 89549
5banks busy for write cycles: 453653
6banks busy for read cycles: 75831
6banks busy for write cycles: 316720
7banks busy for read cycles: 52108
7banks busy for write cycles: 272980
8banks busy for read cycles: 40607
8banks busy for write cycles: 255839

CPU 0 Branch Prediction Accuracy: 99.8437% MPKI: 0.280085 Average ROB Occupancy at Mispredict: 44.6963
Branch types
NOT_BRANCH: 164163864 82.0819%
BRANCH_DIRECT_JUMP: 1728930 0.864465%
BRANCH_INDIRECT: 9451764 4.72588%
BRANCH_CONDITIONAL: 18331226 9.16561%
BRANCH_DIRECT_CALL: 2474151 1.23708%
BRANCH_INDIRECT_CALL: 687640 0.34382%
BRANCH_RETURN: 3162148 1.58107%
BRANCH_OTHER: 0 0%

DRAM PAGES: 1048576
Allocated PAGES: 6094
