
*** ChampSim Multicore Out-of-Order Simulator ***

Warmup Instructions: 50000000
Simulation Instructions: 200000000
Number of CPUs: 1
LLC sets: 2048
LLC ways: 16
Off-chip DRAM Size: 4096 MB Channels: 1 Width: 64-bit Data Rate: 6400 MT/s
CPU 0 runs traces/spec2k17/srv_71.champsimtrace.xz
.xz
BTB has LRU replacement policy
ITLB has LRU replacement policy
DTLB has LRU replacement policy
STLB has LRU replacement policy
L1I has LRU replacement policy
L1D has LRU replacement policy
Initialize SRRIP state for L2C
Initialize DRRIP state for LLC
Heartbeat CPU 0 instructions: 10000002 cycles: 2850930 heartbeat IPC: 3.50763 cumulative IPC: 3.50763 (Simulation time: 0 hr 0 min 23 sec) 
Heartbeat CPU 0 instructions: 20000000 cycles: 5696818 heartbeat IPC: 3.51384 cumulative IPC: 3.51073 (Simulation time: 0 hr 0 min 45 sec) 
Heartbeat CPU 0 instructions: 30000001 cycles: 8543786 heartbeat IPC: 3.51251 cumulative IPC: 3.51132 (Simulation time: 0 hr 1 min 7 sec) 
*** Reached end of trace for Core: 0 Repeating trace: traces/spec2k17/srv_71.champsimtrace.xz
Heartbeat CPU 0 instructions: 40000003 cycles: 11397965 heartbeat IPC: 3.50364 cumulative IPC: 3.5094 (Simulation time: 0 hr 1 min 31 sec) 
Heartbeat CPU 0 instructions: 50000003 cycles: 14258602 heartbeat IPC: 3.49572 cumulative IPC: 3.50666 (Simulation time: 0 hr 1 min 54 sec) 

Warmup complete CPU 0 instructions: 50000003 cycles: 14258602 (Simulation time: 0 hr 1 min 54 sec) 

Heartbeat CPU 0 instructions: 60000000 cycles: 46814686 heartbeat IPC: 0.307162 cumulative IPC: 0.307162 (Simulation time: 0 hr 2 min 32 sec) 
*** Reached end of trace for Core: 0 Repeating trace: traces/spec2k17/srv_71.champsimtrace.xz
Heartbeat CPU 0 instructions: 70000000 cycles: 79241499 heartbeat IPC: 0.308387 cumulative IPC: 0.307773 (Simulation time: 0 hr 3 min 11 sec) 
Heartbeat CPU 0 instructions: 80000002 cycles: 111598205 heartbeat IPC: 0.309055 cumulative IPC: 0.308199 (Simulation time: 0 hr 3 min 48 sec) 
Heartbeat CPU 0 instructions: 90000001 cycles: 143747671 heartbeat IPC: 0.311047 cumulative IPC: 0.308906 (Simulation time: 0 hr 4 min 24 sec) 
*** Reached end of trace for Core: 0 Repeating trace: traces/spec2k17/srv_71.champsimtrace.xz
Heartbeat CPU 0 instructions: 100000003 cycles: 175783698 heartbeat IPC: 0.312149 cumulative IPC: 0.309549 (Simulation time: 0 hr 5 min 1 sec) 
Heartbeat CPU 0 instructions: 110000000 cycles: 207872099 heartbeat IPC: 0.311639 cumulative IPC: 0.309896 (Simulation time: 0 hr 5 min 38 sec) 
Heartbeat CPU 0 instructions: 120000001 cycles: 239990756 heartbeat IPC: 0.311346 cumulative IPC: 0.310102 (Simulation time: 0 hr 6 min 15 sec) 
*** Reached end of trace for Core: 0 Repeating trace: traces/spec2k17/srv_71.champsimtrace.xz
Heartbeat CPU 0 instructions: 130000000 cycles: 272016980 heartbeat IPC: 0.312244 cumulative IPC: 0.310368 (Simulation time: 0 hr 6 min 53 sec) 
Heartbeat CPU 0 instructions: 140000000 cycles: 304076031 heartbeat IPC: 0.311924 cumulative IPC: 0.31054 (Simulation time: 0 hr 7 min 30 sec) 
Heartbeat CPU 0 instructions: 150000001 cycles: 336184610 heartbeat IPC: 0.311443 cumulative IPC: 0.31063 (Simulation time: 0 hr 8 min 7 sec) 
*** Reached end of trace for Core: 0 Repeating trace: traces/spec2k17/srv_71.champsimtrace.xz
Heartbeat CPU 0 instructions: 160000000 cycles: 368219876 heartbeat IPC: 0.312156 cumulative IPC: 0.310768 (Simulation time: 0 hr 8 min 44 sec) 
Heartbeat CPU 0 instructions: 170000000 cycles: 400250826 heartbeat IPC: 0.312198 cumulative IPC: 0.310887 (Simulation time: 0 hr 9 min 21 sec) 
Heartbeat CPU 0 instructions: 180000000 cycles: 432330592 heartbeat IPC: 0.311723 cumulative IPC: 0.310951 (Simulation time: 0 hr 9 min 58 sec) 
*** Reached end of trace for Core: 0 Repeating trace: traces/spec2k17/srv_71.champsimtrace.xz
Heartbeat CPU 0 instructions: 190000003 cycles: 464363000 heartbeat IPC: 0.312184 cumulative IPC: 0.311039 (Simulation time: 0 hr 10 min 35 sec) 
Heartbeat CPU 0 instructions: 200000000 cycles: 496411887 heartbeat IPC: 0.312023 cumulative IPC: 0.311104 (Simulation time: 0 hr 11 min 12 sec) 
Heartbeat CPU 0 instructions: 210000001 cycles: 528488716 heartbeat IPC: 0.311752 cumulative IPC: 0.311145 (Simulation time: 0 hr 11 min 48 sec) 
*** Reached end of trace for Core: 0 Repeating trace: traces/spec2k17/srv_71.champsimtrace.xz
Heartbeat CPU 0 instructions: 220000000 cycles: 560477045 heartbeat IPC: 0.312614 cumulative IPC: 0.311231 (Simulation time: 0 hr 12 min 25 sec) 
Heartbeat CPU 0 instructions: 230000000 cycles: 592512284 heartbeat IPC: 0.312156 cumulative IPC: 0.311282 (Simulation time: 0 hr 13 min 0 sec) 
Heartbeat CPU 0 instructions: 240000003 cycles: 624603290 heartbeat IPC: 0.311614 cumulative IPC: 0.3113 (Simulation time: 0 hr 13 min 29 sec) 
Heartbeat CPU 0 instructions: 250000003 cycles: 656589329 heartbeat IPC: 0.312636 cumulative IPC: 0.311366 (Simulation time: 0 hr 13 min 57 sec) 
Finished CPU 0 instructions: 200000000 cycles: 642330727 cumulative IPC: 0.311366 (Simulation time: 0 hr 13 min 57 sec) 

ChampSim completed all CPUs

Region of Interest Statistics

CPU 0 cumulative IPC: 0.311366 instructions: 200000000 cycles: 642330727
ITLB TOTAL     ACCESS:   35731994  HIT:   33460384  MISS:    2271610  HIT %:    93.6426  MISS %:    6.35736   MPKI: 11.3581
ITLB LOAD TRANSLATION ACCESS:   35731994  HIT:   33460384  MISS:    2271610  HIT %:    93.6426  MISS %:    6.35736   MPKI: 11.3581
ITLB PREFETCH  REQUESTED:          0  ISSUED:          0  USEFUL:          0  USELESS:          0
ITLB USEFUL LOAD PREFETCHES:          0 PREFETCH ISSUED TO LOWER LEVEL:          0  ACCURACY: -nan
ITLB TIMELY PREFETCHES:          0 LATE PREFETCHES: 0 DROPPED PREFETCHES: 0
ITLB PREFETCHES SAME FILL-ORIGIN LEVEL: 0 DIFFERENT FILL-ORIGIN LEVEL: 0
ITLB AVERAGE MISS LATENCY: 9.1671 cycles
ITLB RQ	ACCESS:   42028569	FORWARD:          0	MERGED:    5751645	TO_CACHE:   36276924

DTLB TOTAL     ACCESS:   45986427  HIT:   43928231  MISS:    2058196  HIT %:    95.5243  MISS %:    4.47566   MPKI: 10.291
DTLB LOAD TRANSLATION ACCESS:   45986427  HIT:   43928231  MISS:    2058196  HIT %:    95.5243  MISS %:    4.47566   MPKI: 10.291
DTLB PREFETCH  REQUESTED:          0  ISSUED:          0  USEFUL:          0  USELESS:          0
DTLB USEFUL LOAD PREFETCHES:          0 PREFETCH ISSUED TO LOWER LEVEL:          0  ACCURACY: -nan
DTLB TIMELY PREFETCHES:          0 LATE PREFETCHES: 0 DROPPED PREFETCHES: 0
DTLB PREFETCHES SAME FILL-ORIGIN LEVEL: 0 DIFFERENT FILL-ORIGIN LEVEL: 0
DTLB AVERAGE MISS LATENCY: 8.20948 cycles
DTLB RQ	ACCESS:   60774223	FORWARD:          0	MERGED:   14731032	TO_CACHE:   46043191

STLB TOTAL     ACCESS:   24342468  HIT:   24312024  MISS:      30444  HIT %:    99.8749  MISS %:   0.125065   MPKI: 0.15222
STLB LOAD TRANSLATION ACCESS:    4329806  HIT:    4301857  MISS:      27949  HIT %:    99.3545  MISS %:   0.645502   MPKI: 0.139745
STLB TRANSLATION FROM L1D PREFETCHER ACCESS:   20012662  HIT:   20010167  MISS:       2495  HIT %:    99.9875  MISS %:  0.0124671   MPKI: 0.012475
STLB PREFETCH  REQUESTED:          0  ISSUED:          0  USEFUL:       2330  USELESS:        162
STLB USEFUL LOAD PREFETCHES:       2330 PREFETCH ISSUED TO LOWER LEVEL:          0  ACCURACY: inf
STLB TIMELY PREFETCHES:       2330 LATE PREFETCHES: 1641 DROPPED PREFETCHES: 247032
STLB PREFETCHES SAME FILL-ORIGIN LEVEL: 0 DIFFERENT FILL-ORIGIN LEVEL: 0
STLB AVERAGE MISS LATENCY: 26.883 cycles
STLB RQ	ACCESS:   28879224	FORWARD:          0	MERGED:    4287212	TO_CACHE:   24592012

STLB Hit, L1D data hit: 0
STLB Hit, L2C data hit: 0
STLB Hit, LLC data hit: 0
STLB Hit, LLC data miss: 0
STLB STLB hints to L2: 0
L1D TOTAL     ACCESS:   81342193  HIT:   75189332  MISS:    6152861  HIT %:    92.4358  MISS %:    7.56417   MPKI: 30.7643
L1D LOAD      ACCESS:   34121838  HIT:   30946902  MISS:    3174936  HIT %:    90.6953  MISS %:     9.3047   MPKI: 15.8747
L1D RFO       ACCESS:   24903879  HIT:   23783777  MISS:    1120102  HIT %:    95.5023  MISS %:     4.4977   MPKI: 5.60051
L1D PREFETCH  ACCESS:   22316476  HIT:   20458653  MISS:    1857823  HIT %:    91.6751  MISS %:    8.32489   MPKI: 9.28912
AGUS PREFETCH L1 MISS: 0
L1D PREFETCH  REQUESTED:   51353660  ISSUED:   51353543  USEFUL:    1393113  USELESS:     464673
L1D USEFUL LOAD PREFETCHES:    1393113 PREFETCH ISSUED TO LOWER LEVEL:    2955808  ACCURACY: 47.1314
L1D TIMELY PREFETCHES:    1393113 LATE PREFETCHES: 1091208 DROPPED PREFETCHES: 272024
L1D PREFETCHES SAME FILL-ORIGIN LEVEL: 2955808 DIFFERENT FILL-ORIGIN LEVEL: 0
L1D AVERAGE MISS LATENCY: 6.34177e+07 cycles
L1D RQ	ACCESS:   46567060	FORWARD:          0	MERGED:   12006868	TO_CACHE:   34235177
L1D WQ	ACCESS:   26687093	FORWARD:     365452	MERGED:     148047	TO_CACHE:   26539046
L1D PQ	ACCESS:   26804125	FORWARD:          0	MERGED:    2214270	TO_CACHE:   24549418

L1D UNIQUE REGIONS ACCESSED: 0
L1D REGIONS CONFLICTS: 0
L1D Cross Page Prefetch Requests: 17868583
L1D Same Page Prefetch Requests: 10679040
L1D ROI Sum of L1D PQ occupancy: 338623666
L1D PREFETCHES PUSHED FROM L2C: 0
L1I TOTAL     ACCESS:   40346100  HIT:   28858205  MISS:   11487895  HIT %:    71.5266  MISS %:    28.4734   MPKI: 57.4395
L1I LOAD      ACCESS:   40346100  HIT:   28858205  MISS:   11487895  HIT %:    71.5266  MISS %:    28.4734   MPKI: 57.4395
L1I PREFETCH  REQUESTED:          0  ISSUED:          0  USEFUL:          0  USELESS:          0
L1I USEFUL LOAD PREFETCHES:          0 PREFETCH ISSUED TO LOWER LEVEL:          0  ACCURACY: -nan
L1I TIMELY PREFETCHES:          0 LATE PREFETCHES: 0 DROPPED PREFETCHES: 0
L1I PREFETCHES SAME FILL-ORIGIN LEVEL: 0 DIFFERENT FILL-ORIGIN LEVEL: 0
L1I AVERAGE MISS LATENCY: 15.5779 cycles
L1I RQ	ACCESS:   58269223	FORWARD:          0	MERGED:   16240654	TO_CACHE:   42028569

BTB TOTAL     ACCESS:   30381253  HIT:   17587960  MISS:   12793293  HIT %:    57.8908  MISS %:    42.1092   MPKI: 63.9665
BTB BRANCH_DIRECT_JUMP	ACCESS:    1874465  HIT:    1039962  MISS:     834503
BTB BRANCH_INDIRECT	ACCESS:   12070934  HIT:    7181480  MISS:    4889454
BTB BRANCH_CONDITIONAL	ACCESS:    7200933  HIT:    5892738  MISS:    1308195
BTB BRANCH_DIRECT_CALL	ACCESS:    3894488  HIT:    1805611  MISS:    2088877
BTB BRANCH_INDIRECT_CALL	ACCESS:     722993  HIT:     337731  MISS:     385262
BTB BRANCH_RETURN	ACCESS:    4617440  HIT:    1330438  MISS:    3287002
BTB BRANCH_OTHER ACCESS:          0  HIT:          0  MISS:          0

L2C TOTAL     ACCESS:   20401045  HIT:   19312668  MISS:    1088377  HIT %:    94.6651  MISS %:    5.33491   MPKI: 5.44189
L2C LOAD      ACCESS:   13571565  HIT:   12788542  MISS:     783023  HIT %:    94.2304  MISS %:    5.76959   MPKI: 3.91512
L2C DATA LOAD MPKI: 1.05164
L2C INSTRUCTION LOAD MPKI: 2.86347
L2C RFO       ACCESS:    1113324  HIT:    1049597  MISS:      63727  HIT %:     94.276  MISS %:    5.72403   MPKI: 0.318635
L2C PREFETCH  ACCESS:    2955264  HIT:    2751951  MISS:     203313  HIT %:    93.1203  MISS %:    6.87969   MPKI: 1.01656
AGUS PREFETCH L1 MISS: 0
L2C DATA PREFETCH MPKI: 1.01656
L2C INSTRUCTION PREFETCH MPKI: 0
L2C WRITEBACK ACCESS:    2366663  HIT:    2347908  MISS:      18755  HIT %:    99.2075  MISS %:   0.792466   MPKI: 0.093775
L2C LOAD TRANSLATION ACCESS:      27448  HIT:      20981  MISS:       6467  HIT %:    76.4391  MISS %:    23.5609   MPKI: 0.032335
L2C TRANSLATION FROM L1D PREFETCHER ACCESS:     366781  HIT:     353689  MISS:      13092  HIT %:    96.4306  MISS %:    3.56943   MPKI: 0.06546
L2C PREFETCH  REQUESTED:          0  ISSUED:          0  USEFUL:      19896  USELESS:     196662
L2C USEFUL LOAD PREFETCHES:      19896 PREFETCH ISSUED TO LOWER LEVEL:     203313  ACCURACY: 9.7859
L2C TIMELY PREFETCHES:      19896 LATE PREFETCHES: 0 DROPPED PREFETCHES: 0
L2C PREFETCHES SAME FILL-ORIGIN LEVEL: 0 DIFFERENT FILL-ORIGIN LEVEL: 0
L2C AVERAGE MISS LATENCY: 30.5249 cycles
L2C RQ	ACCESS:   15079177	FORWARD:          0	MERGED:          0	TO_CACHE:   15079119
L2C WQ	ACCESS:    2366663	FORWARD:        602	MERGED:          0	TO_CACHE:    2366663
L2C PQ	ACCESS:    2955808	FORWARD:          0	MERGED:          0	TO_CACHE:    2955264

L2C Instructions Evicting Data 243532
L2C Translations Evicting Data 9626
L2C Data Evicting Data 236888
L2C Instructions Evicting Instructions 320803
L2C Translations Evicting Instructions 8792
L2C Data Evicting Instructions 230688
L2C Instructions Evicting Translations 8359
L2C Translations Evicting Translations 1141
L2C Data Evicting Translations 9793
L2C Dense regions hint from L2: 0
PSCL5 TOTAL     ACCESS:     276813  HIT:     276813  MISS:          0  HIT %:        100  MISS %:          0   MPKI: 0
PSCL5 LOAD TRANSLATION ACCESS:      26308  HIT:      26308  MISS:          0  HIT %:        100  MISS %:          0   MPKI: 0
PSCL5 TRANSLATION FROM L1D PREFETCHER ACCESS:     250505  HIT:     250505  MISS:          0  HIT %:        100  MISS %:          0   MPKI: 0
PSCL5 PREFETCH  REQUESTED:          0  ISSUED:          0  USEFUL:          0  USELESS:          0
PSCL5 USEFUL LOAD PREFETCHES:          0 PREFETCH ISSUED TO LOWER LEVEL:          0  ACCURACY: -nan
PSCL5 TIMELY PREFETCHES:          0 LATE PREFETCHES: 0 DROPPED PREFETCHES: 0
PSCL5 PREFETCHES SAME FILL-ORIGIN LEVEL: 0 DIFFERENT FILL-ORIGIN LEVEL: 0

PSCL4 TOTAL     ACCESS:     182249  HIT:     182114  MISS:        135  HIT %:    99.9259  MISS %:  0.0740745   MPKI: 0.000675
PSCL4 LOAD TRANSLATION ACCESS:      23933  HIT:      23798  MISS:        135  HIT %:    99.4359  MISS %:   0.564075   MPKI: 0.000675
PSCL4 TRANSLATION FROM L1D PREFETCHER ACCESS:     158316  HIT:     158316  MISS:          0  HIT %:        100  MISS %:          0   MPKI: 0
PSCL4 PREFETCH  REQUESTED:          0  ISSUED:          0  USEFUL:          0  USELESS:          0
PSCL4 USEFUL LOAD PREFETCHES:          0 PREFETCH ISSUED TO LOWER LEVEL:          0  ACCURACY: -nan
PSCL4 TIMELY PREFETCHES:          0 LATE PREFETCHES: 0 DROPPED PREFETCHES: 0
PSCL4 PREFETCHES SAME FILL-ORIGIN LEVEL: 0 DIFFERENT FILL-ORIGIN LEVEL: 0

PSCL3 TOTAL     ACCESS:     212474  HIT:     212339  MISS:        135  HIT %:    99.9365  MISS %:  0.0635372   MPKI: 0.000675
PSCL3 LOAD TRANSLATION ACCESS:      25025  HIT:      24890  MISS:        135  HIT %:    99.4605  MISS %:   0.539461   MPKI: 0.000675
PSCL3 TRANSLATION FROM L1D PREFETCHER ACCESS:     187449  HIT:     187449  MISS:          0  HIT %:        100  MISS %:          0   MPKI: 0
PSCL3 PREFETCH  REQUESTED:          0  ISSUED:          0  USEFUL:          0  USELESS:          0
PSCL3 USEFUL LOAD PREFETCHES:          0 PREFETCH ISSUED TO LOWER LEVEL:          0  ACCURACY: -nan
PSCL3 TIMELY PREFETCHES:          0 LATE PREFETCHES: 0 DROPPED PREFETCHES: 0
PSCL3 PREFETCHES SAME FILL-ORIGIN LEVEL: 0 DIFFERENT FILL-ORIGIN LEVEL: 0

PSCL2 TOTAL     ACCESS:     101381  HIT:     100350  MISS:       1031  HIT %:     98.983  MISS %:    1.01696   MPKI: 0.005155
PSCL2 LOAD TRANSLATION ACCESS:      26435  HIT:      25404  MISS:       1031  HIT %:    96.0999  MISS %:    3.90013   MPKI: 0.005155
PSCL2 TRANSLATION FROM L1D PREFETCHER ACCESS:      74946  HIT:      74946  MISS:          0  HIT %:        100  MISS %:          0   MPKI: 0
PSCL2 PREFETCH  REQUESTED:          0  ISSUED:          0  USEFUL:          0  USELESS:          0
PSCL2 USEFUL LOAD PREFETCHES:          0 PREFETCH ISSUED TO LOWER LEVEL:          0  ACCURACY: -nan
PSCL2 TIMELY PREFETCHES:          0 LATE PREFETCHES: 0 DROPPED PREFETCHES: 0
PSCL2 PREFETCHES SAME FILL-ORIGIN LEVEL: 0 DIFFERENT FILL-ORIGIN LEVEL: 0

LLC TOTAL     ACCESS:    1165976  HIT:    1158172  MISS:       7804  HIT %:    99.3307  MISS %:   0.669311   MPKI: 0.03902
LLC LOAD      ACCESS:     783023  HIT:     779601  MISS:       3422  HIT %:     99.563  MISS %:   0.437024   MPKI: 0.01711
LLC RFO       ACCESS:      63725  HIT:      62839  MISS:        886  HIT %:    98.6097  MISS %:    1.39035   MPKI: 0.00443
LLC PREFETCH  ACCESS:     203313  HIT:     200187  MISS:       3126  HIT %:    98.4625  MISS %:    1.53753   MPKI: 0.01563
AGUS PREFETCH L1 MISS: 0
LLC WRITEBACK ACCESS:      96356  HIT:      96293  MISS:         63  HIT %:    99.9346  MISS %:  0.0653825   MPKI: 0.000315
LLC LOAD TRANSLATION ACCESS:       6467  HIT:       6444  MISS:         23  HIT %:    99.6443  MISS %:   0.355652   MPKI: 0.000115
LLC TRANSLATION FROM L1D PREFETCHER ACCESS:      13092  HIT:      12808  MISS:        284  HIT %:    97.8307  MISS %:    2.16926   MPKI: 0.00142
LLC PREFETCH  REQUESTED:          0  ISSUED:          0  USEFUL:       2735  USELESS:       1935
LLC USEFUL LOAD PREFETCHES:       2735 PREFETCH ISSUED TO LOWER LEVEL:       3126  ACCURACY: 87.492
LLC TIMELY PREFETCHES:       2735 LATE PREFETCHES: 0 DROPPED PREFETCHES: 0
LLC PREFETCHES SAME FILL-ORIGIN LEVEL: 0 DIFFERENT FILL-ORIGIN LEVEL: 0
LLC AVERAGE MISS LATENCY: 145.292 cycles
LLC RQ	ACCESS:     866310	FORWARD:          0	MERGED:          0	TO_CACHE:     866308
LLC WQ	ACCESS:      96356	FORWARD:          2	MERGED:          0	TO_CACHE:      96356
LLC PQ	ACCESS:     203313	FORWARD:          0	MERGED:          0	TO_CACHE:     203313

LLC Dense regions hint to LLC: 0

RAW hits: 1417464
Loads Generated: 47984525
Loads sent to L1D: 46567060
Stores Generated: 26687089
Stores sent to L1D: 26687093
Major fault: 0 Minor fault: 1956
Allocated PAGES: 1956
Completed 

DRAM Statistics
 CHANNEL 0
 RQ ROW_BUFFER_HIT:       1876  ROW_BUFFER_MISS:       5865
 DBUS_CONGESTED:          5
 WQ ROW_BUFFER_HIT:         87  ROW_BUFFER_MISS:       1035  FULL:          0

 AVG_CONGESTED_CYCLE: 4
 All warmup complete: 2
Channel 0 Bank busy for read cycles: 0
Channel 0 Bank busy for write cycles: 0
Channel 0
Rank 0
0banks busy for read cycles: 641390538
0banks busy for write cycles: 828
1banks busy for read cycles: 678639
1banks busy for write cycles: 114557
2banks busy for read cycles: 84950
2banks busy for write cycles: 15071
3banks busy for read cycles: 22196
3banks busy for write cycles: 5311
4banks busy for read cycles: 9074
4banks busy for write cycles: 3872
5banks busy for read cycles: 3154
5banks busy for write cycles: 1358
6banks busy for read cycles: 882
6banks busy for write cycles: 145
7banks busy for read cycles: 131
7banks busy for write cycles: 0
8banks busy for read cycles: 22
8banks busy for write cycles: 0

CPU 0 Branch Prediction Accuracy: 99.8837% MPKI: 0.20904 Average ROB Occupancy at Mispredict: 29.8641
Branch types
NOT_BRANCH: 164064568 82.0323%
BRANCH_DIRECT_JUMP: 1874465 0.937233%
BRANCH_INDIRECT: 12070934 6.03547%
BRANCH_CONDITIONAL: 12755089 6.37754%
BRANCH_DIRECT_CALL: 3894488 1.94724%
BRANCH_INDIRECT_CALL: 722993 0.361496%
BRANCH_RETURN: 4617440 2.30872%
BRANCH_OTHER: 0 0%

DRAM PAGES: 1048576
Allocated PAGES: 1956
