
*** ChampSim Multicore Out-of-Order Simulator ***

Warmup Instructions: 50000000
Simulation Instructions: 200000000
Number of CPUs: 1
LLC sets: 2048
LLC ways: 16
Off-chip DRAM Size: 4096 MB Channels: 1 Width: 64-bit Data Rate: 6400 MT/s
CPU 0 runs traces/spec2k17/srv_38.champsimtrace.xz
.xz
BTB has LRU replacement policy
ITLB has LRU replacement policy
DTLB has LRU replacement policy
STLB has LRU replacement policy
L1I has LRU replacement policy
L1D has LRU replacement policy
Initialize SRRIP state for L2C
Initialize DRRIP state for LLC
Heartbeat CPU 0 instructions: 10000003 cycles: 2945157 heartbeat IPC: 3.39541 cumulative IPC: 3.39541 (Simulation time: 0 hr 0 min 27 sec) 
Heartbeat CPU 0 instructions: 20000002 cycles: 5883257 heartbeat IPC: 3.40356 cumulative IPC: 3.39948 (Simulation time: 0 hr 0 min 54 sec) 
Heartbeat CPU 0 instructions: 30000000 cycles: 8828363 heartbeat IPC: 3.39546 cumulative IPC: 3.39814 (Simulation time: 0 hr 1 min 21 sec) 
*** Reached end of trace for Core: 0 Repeating trace: traces/spec2k17/srv_38.champsimtrace.xz
Heartbeat CPU 0 instructions: 40000003 cycles: 11774957 heartbeat IPC: 3.39375 cumulative IPC: 3.39704 (Simulation time: 0 hr 1 min 48 sec) 
Heartbeat CPU 0 instructions: 50000002 cycles: 14713491 heartbeat IPC: 3.40306 cumulative IPC: 3.39824 (Simulation time: 0 hr 2 min 15 sec) 

Warmup complete CPU 0 instructions: 50000002 cycles: 14713491 (Simulation time: 0 hr 2 min 15 sec) 

Heartbeat CPU 0 instructions: 60000000 cycles: 34226041 heartbeat IPC: 0.512491 cumulative IPC: 0.512491 (Simulation time: 0 hr 3 min 0 sec) 
*** Reached end of trace for Core: 0 Repeating trace: traces/spec2k17/srv_38.champsimtrace.xz
Heartbeat CPU 0 instructions: 70000001 cycles: 53597362 heartbeat IPC: 0.516227 cumulative IPC: 0.514352 (Simulation time: 0 hr 3 min 45 sec) 
Heartbeat CPU 0 instructions: 80000000 cycles: 72905081 heartbeat IPC: 0.517928 cumulative IPC: 0.515538 (Simulation time: 0 hr 4 min 31 sec) 
Heartbeat CPU 0 instructions: 90000003 cycles: 92175829 heartbeat IPC: 0.518921 cumulative IPC: 0.51638 (Simulation time: 0 hr 5 min 16 sec) 
*** Reached end of trace for Core: 0 Repeating trace: traces/spec2k17/srv_38.champsimtrace.xz
Heartbeat CPU 0 instructions: 100000002 cycles: 111506207 heartbeat IPC: 0.51732 cumulative IPC: 0.516568 (Simulation time: 0 hr 6 min 2 sec) 
Heartbeat CPU 0 instructions: 110000000 cycles: 130778076 heartbeat IPC: 0.518891 cumulative IPC: 0.516954 (Simulation time: 0 hr 6 min 48 sec) 
Heartbeat CPU 0 instructions: 120000000 cycles: 149994723 heartbeat IPC: 0.520382 cumulative IPC: 0.517441 (Simulation time: 0 hr 7 min 33 sec) 
*** Reached end of trace for Core: 0 Repeating trace: traces/spec2k17/srv_38.champsimtrace.xz
Heartbeat CPU 0 instructions: 130000003 cycles: 169351954 heartbeat IPC: 0.516603 cumulative IPC: 0.517336 (Simulation time: 0 hr 8 min 18 sec) 
Heartbeat CPU 0 instructions: 140000001 cycles: 188560588 heartbeat IPC: 0.520599 cumulative IPC: 0.517696 (Simulation time: 0 hr 9 min 3 sec) 
Heartbeat CPU 0 instructions: 150000000 cycles: 207755632 heartbeat IPC: 0.520968 cumulative IPC: 0.518022 (Simulation time: 0 hr 9 min 48 sec) 
Heartbeat CPU 0 instructions: 160000002 cycles: 227080518 heartbeat IPC: 0.517468 cumulative IPC: 0.517971 (Simulation time: 0 hr 10 min 33 sec) 
*** Reached end of trace for Core: 0 Repeating trace: traces/spec2k17/srv_38.champsimtrace.xz
Heartbeat CPU 0 instructions: 170000000 cycles: 246329451 heartbeat IPC: 0.519509 cumulative IPC: 0.518099 (Simulation time: 0 hr 11 min 20 sec) 
Heartbeat CPU 0 instructions: 180000000 cycles: 265557265 heartbeat IPC: 0.52008 cumulative IPC: 0.518251 (Simulation time: 0 hr 12 min 5 sec) 
Heartbeat CPU 0 instructions: 190000000 cycles: 284775791 heartbeat IPC: 0.520331 cumulative IPC: 0.518399 (Simulation time: 0 hr 12 min 49 sec) 
*** Reached end of trace for Core: 0 Repeating trace: traces/spec2k17/srv_38.champsimtrace.xz
Heartbeat CPU 0 instructions: 200000000 cycles: 304043789 heartbeat IPC: 0.518995 cumulative IPC: 0.518439 (Simulation time: 0 hr 13 min 35 sec) 
Heartbeat CPU 0 instructions: 210000002 cycles: 323215850 heartbeat IPC: 0.521592 cumulative IPC: 0.518635 (Simulation time: 0 hr 14 min 20 sec) 
Heartbeat CPU 0 instructions: 220000000 cycles: 342371569 heartbeat IPC: 0.522037 cumulative IPC: 0.518834 (Simulation time: 0 hr 15 min 5 sec) 
*** Reached end of trace for Core: 0 Repeating trace: traces/spec2k17/srv_38.champsimtrace.xz
Heartbeat CPU 0 instructions: 230000001 cycles: 361583541 heartbeat IPC: 0.520509 cumulative IPC: 0.518926 (Simulation time: 0 hr 15 min 51 sec) 
Heartbeat CPU 0 instructions: 240000003 cycles: 380825248 heartbeat IPC: 0.519705 cumulative IPC: 0.518967 (Simulation time: 0 hr 16 min 36 sec) 
Heartbeat CPU 0 instructions: 250000002 cycles: 400044061 heartbeat IPC: 0.520323 cumulative IPC: 0.519035 (Simulation time: 0 hr 17 min 20 sec) 
Finished CPU 0 instructions: 200000000 cycles: 385330570 cumulative IPC: 0.519035 (Simulation time: 0 hr 17 min 20 sec) 

ChampSim completed all CPUs

Region of Interest Statistics

CPU 0 cumulative IPC: 0.519035 instructions: 200000000 cycles: 385330570
ITLB TOTAL     ACCESS:   33752337  HIT:   32228202  MISS:    1524135  HIT %:    95.4844  MISS %:    4.51564   MPKI: 7.62068
ITLB LOAD TRANSLATION ACCESS:   33752337  HIT:   32228202  MISS:    1524135  HIT %:    95.4844  MISS %:    4.51564   MPKI: 7.62068
ITLB PREFETCH  REQUESTED:          0  ISSUED:          0  USEFUL:          0  USELESS:          0
ITLB USEFUL LOAD PREFETCHES:          0 PREFETCH ISSUED TO LOWER LEVEL:          0  ACCURACY: -nan
ITLB TIMELY PREFETCHES:          0 LATE PREFETCHES: 0 DROPPED PREFETCHES: 0
ITLB PREFETCHES SAME FILL-ORIGIN LEVEL: 0 DIFFERENT FILL-ORIGIN LEVEL: 0
ITLB AVERAGE MISS LATENCY: 9.18842 cycles
ITLB RQ	ACCESS:   40620259	FORWARD:          0	MERGED:    6375485	TO_CACHE:   34244774

DTLB TOTAL     ACCESS:   39874721  HIT:   38384378  MISS:    1490343  HIT %:    96.2624  MISS %:    3.73756   MPKI: 7.45172
DTLB LOAD TRANSLATION ACCESS:   39874721  HIT:   38384378  MISS:    1490343  HIT %:    96.2624  MISS %:    3.73756   MPKI: 7.45172
DTLB PREFETCH  REQUESTED:          0  ISSUED:          0  USEFUL:          0  USELESS:          0
DTLB USEFUL LOAD PREFETCHES:          0 PREFETCH ISSUED TO LOWER LEVEL:          0  ACCURACY: -nan
DTLB TIMELY PREFETCHES:          0 LATE PREFETCHES: 0 DROPPED PREFETCHES: 0
DTLB PREFETCHES SAME FILL-ORIGIN LEVEL: 0 DIFFERENT FILL-ORIGIN LEVEL: 0
DTLB AVERAGE MISS LATENCY: 13.418 cycles
DTLB RQ	ACCESS:   60954853	FORWARD:          0	MERGED:   20701906	TO_CACHE:   40252947

STLB TOTAL     ACCESS:    9723329  HIT:    9648092  MISS:      75237  HIT %:    99.2262  MISS %:   0.773778   MPKI: 0.376185
STLB LOAD TRANSLATION ACCESS:    3014478  HIT:    2942026  MISS:      72452  HIT %:    97.5965  MISS %:    2.40347   MPKI: 0.36226
STLB TRANSLATION FROM L1D PREFETCHER ACCESS:    6708851  HIT:    6706066  MISS:       2785  HIT %:    99.9585  MISS %:  0.0415123   MPKI: 0.013925
STLB PREFETCH  REQUESTED:          0  ISSUED:          0  USEFUL:       2282  USELESS:        501
STLB USEFUL LOAD PREFETCHES:       2282 PREFETCH ISSUED TO LOWER LEVEL:          0  ACCURACY: inf
STLB TIMELY PREFETCHES:       2282 LATE PREFETCHES: 800 DROPPED PREFETCHES: 57584
STLB PREFETCHES SAME FILL-ORIGIN LEVEL: 0 DIFFERENT FILL-ORIGIN LEVEL: 0
STLB AVERAGE MISS LATENCY: 98959.4 cycles
STLB RQ	ACCESS:   12459108	FORWARD:          0	MERGED:    2676597	TO_CACHE:    9782511

STLB Hit, L1D data hit: 0
STLB Hit, L2C data hit: 0
STLB Hit, LLC data hit: 0
STLB Hit, LLC data miss: 0
STLB STLB hints to L2: 0
L1D TOTAL     ACCESS:   56934854  HIT:   49955904  MISS:    6978950  HIT %:    87.7422  MISS %:    12.2578   MPKI: 34.8948
L1D LOAD      ACCESS:   26633411  HIT:   23766827  MISS:    2866584  HIT %:    89.2369  MISS %:    10.7631   MPKI: 14.3329
L1D RFO       ACCESS:   22270053  HIT:   18569773  MISS:    3700280  HIT %:    83.3845  MISS %:    16.6155   MPKI: 18.5014
L1D PREFETCH  ACCESS:    8031390  HIT:    7619304  MISS:     412086  HIT %:    94.8691  MISS %:    5.13094   MPKI: 2.06043
AGUS PREFETCH L1 MISS: 0
L1D PREFETCH  REQUESTED:   20657524  ISSUED:   20654753  USEFUL:     234059  USELESS:     178052
L1D USEFUL LOAD PREFETCHES:     234059 PREFETCH ISSUED TO LOWER LEVEL:     849079  ACCURACY: 27.5662
L1D TIMELY PREFETCHES:     234059 LATE PREFETCHES: 434581 DROPPED PREFETCHES: 62021
L1D PREFETCHES SAME FILL-ORIGIN LEVEL: 849079 DIFFERENT FILL-ORIGIN LEVEL: 0
L1D AVERAGE MISS LATENCY: 1.35938e+07 cycles
L1D RQ	ACCESS:   45135411	FORWARD:          0	MERGED:   17824984	TO_CACHE:   27032551
L1D WQ	ACCESS:   34120710	FORWARD:     309531	MERGED:     198408	TO_CACHE:   33922302
L1D PQ	ACCESS:   11210123	FORWARD:          0	MERGED:    1733838	TO_CACHE:    9444630

L1D UNIQUE REGIONS ACCESSED: 0
L1D REGIONS CONFLICTS: 0
L1D Cross Page Prefetch Requests: 4600341
L1D Same Page Prefetch Requests: 8346070
L1D ROI Sum of L1D PQ occupancy: 139408032
L1D PREFETCHES PUSHED FROM L2C: 0
L1I TOTAL     ACCESS:   37993767  HIT:   28992742  MISS:    9001025  HIT %:    76.3092  MISS %:    23.6908   MPKI: 45.0051
L1I LOAD      ACCESS:   37993767  HIT:   28992742  MISS:    9001025  HIT %:    76.3092  MISS %:    23.6908   MPKI: 45.0051
L1I PREFETCH  REQUESTED:          0  ISSUED:          0  USEFUL:          0  USELESS:          0
L1I USEFUL LOAD PREFETCHES:          0 PREFETCH ISSUED TO LOWER LEVEL:          0  ACCURACY: -nan
L1I TIMELY PREFETCHES:          0 LATE PREFETCHES: 0 DROPPED PREFETCHES: 0
L1I PREFETCHES SAME FILL-ORIGIN LEVEL: 0 DIFFERENT FILL-ORIGIN LEVEL: 0
L1I AVERAGE MISS LATENCY: 16.572 cycles
L1I RQ	ACCESS:   58940717	FORWARD:          0	MERGED:   18320458	TO_CACHE:   40620259

BTB TOTAL     ACCESS:   25785291  HIT:   24238540  MISS:    1546751  HIT %:    94.0014  MISS %:    5.99858   MPKI: 7.73376
BTB BRANCH_DIRECT_JUMP	ACCESS:    1652264  HIT:    1642590  MISS:       9674
BTB BRANCH_INDIRECT	ACCESS:    9950804  HIT:    9430277  MISS:     520527
BTB BRANCH_CONDITIONAL	ACCESS:    7377327  HIT:    7363709  MISS:      13618
BTB BRANCH_DIRECT_CALL	ACCESS:    2809801  HIT:    2776203  MISS:      33598
BTB BRANCH_INDIRECT_CALL	ACCESS:     592726  HIT:     482250  MISS:     110476
BTB BRANCH_RETURN	ACCESS:    3402369  HIT:    2543511  MISS:     858858
BTB BRANCH_OTHER ACCESS:          0  HIT:          0  MISS:          0

L2C TOTAL     ACCESS:   20492291  HIT:   13787157  MISS:    6705134  HIT %:    67.2797  MISS %:    32.7203   MPKI: 33.5257
L2C LOAD      ACCESS:   11432985  HIT:    9100693  MISS:    2332292  HIT %:    79.6003  MISS %:    20.3997   MPKI: 11.6615
L2C DATA LOAD MPKI: 8.86844
L2C INSTRUCTION LOAD MPKI: 2.79302
L2C RFO       ACCESS:    3697862  HIT:     160384  MISS:    3537478  HIT %:    4.33721  MISS %:    95.6628   MPKI: 17.6874
L2C PREFETCH  ACCESS:     849059  HIT:     191423  MISS:     657636  HIT %:    22.5453  MISS %:    77.4547   MPKI: 3.28818
AGUS PREFETCH L1 MISS: 0
L2C DATA PREFETCH MPKI: 3.28818
L2C INSTRUCTION PREFETCH MPKI: 0
L2C WRITEBACK ACCESS:    4359022  HIT:    4232224  MISS:     126798  HIT %:    97.0911  MISS %:    2.90886   MPKI: 0.63399
L2C LOAD TRANSLATION ACCESS:      76851  HIT:      44544  MISS:      32307  HIT %:    57.9615  MISS %:    42.0385   MPKI: 0.161535
L2C TRANSLATION FROM L1D PREFETCHER ACCESS:      76512  HIT:      57889  MISS:      18623  HIT %:      75.66  MISS %:      24.34   MPKI: 0.093115
L2C PREFETCH  REQUESTED:          0  ISSUED:          0  USEFUL:      27869  USELESS:     648451
L2C USEFUL LOAD PREFETCHES:      27869 PREFETCH ISSUED TO LOWER LEVEL:     657636  ACCURACY: 4.23775
L2C TIMELY PREFETCHES:      27869 LATE PREFETCHES: 0 DROPPED PREFETCHES: 0
L2C PREFETCHES SAME FILL-ORIGIN LEVEL: 0 DIFFERENT FILL-ORIGIN LEVEL: 0
L2C AVERAGE MISS LATENCY: 157.65 cycles
L2C RQ	ACCESS:   15284266	FORWARD:          0	MERGED:          0	TO_CACHE:   15284217
L2C WQ	ACCESS:    4359023	FORWARD:         69	MERGED:          0	TO_CACHE:    4359023
L2C PQ	ACCESS:     849079	FORWARD:          0	MERGED:          0	TO_CACHE:     849059

L2C Instructions Evicting Data 518076
L2C Translations Evicting Data 46494
L2C Data Evicting Data 5415443
L2C Instructions Evicting Instructions 36228
L2C Translations Evicting Instructions 3926
L2C Data Evicting Instructions 508076
L2C Instructions Evicting Translations 4300
L2C Translations Evicting Translations 510
L2C Data Evicting Translations 45283
L2C Dense regions hint from L2: 0
PSCL5 TOTAL     ACCESS:     126377  HIT:     126377  MISS:          0  HIT %:        100  MISS %:          0   MPKI: 0
PSCL5 LOAD TRANSLATION ACCESS:      71652  HIT:      71652  MISS:          0  HIT %:        100  MISS %:          0   MPKI: 0
PSCL5 TRANSLATION FROM L1D PREFETCHER ACCESS:      54725  HIT:      54725  MISS:          0  HIT %:        100  MISS %:          0   MPKI: 0
PSCL5 PREFETCH  REQUESTED:          0  ISSUED:          0  USEFUL:          0  USELESS:          0
PSCL5 USEFUL LOAD PREFETCHES:          0 PREFETCH ISSUED TO LOWER LEVEL:          0  ACCURACY: -nan
PSCL5 TIMELY PREFETCHES:          0 LATE PREFETCHES: 0 DROPPED PREFETCHES: 0
PSCL5 PREFETCHES SAME FILL-ORIGIN LEVEL: 0 DIFFERENT FILL-ORIGIN LEVEL: 0

PSCL4 TOTAL     ACCESS:     112479  HIT:     112315  MISS:        164  HIT %:    99.8542  MISS %:   0.145805   MPKI: 0.00082
PSCL4 LOAD TRANSLATION ACCESS:      69919  HIT:      69755  MISS:        164  HIT %:    99.7654  MISS %:   0.234557   MPKI: 0.00082
PSCL4 TRANSLATION FROM L1D PREFETCHER ACCESS:      42560  HIT:      42560  MISS:          0  HIT %:        100  MISS %:          0   MPKI: 0
PSCL4 PREFETCH  REQUESTED:          0  ISSUED:          0  USEFUL:          0  USELESS:          0
PSCL4 USEFUL LOAD PREFETCHES:          0 PREFETCH ISSUED TO LOWER LEVEL:          0  ACCURACY: -nan
PSCL4 TIMELY PREFETCHES:          0 LATE PREFETCHES: 0 DROPPED PREFETCHES: 0
PSCL4 PREFETCHES SAME FILL-ORIGIN LEVEL: 0 DIFFERENT FILL-ORIGIN LEVEL: 0

PSCL3 TOTAL     ACCESS:     113945  HIT:     113781  MISS:        164  HIT %:    99.8561  MISS %:   0.143929   MPKI: 0.00082
PSCL3 LOAD TRANSLATION ACCESS:      70621  HIT:      70457  MISS:        164  HIT %:    99.7678  MISS %:   0.232226   MPKI: 0.00082
PSCL3 TRANSLATION FROM L1D PREFETCHER ACCESS:      43324  HIT:      43324  MISS:          0  HIT %:        100  MISS %:          0   MPKI: 0
PSCL3 PREFETCH  REQUESTED:          0  ISSUED:          0  USEFUL:          0  USELESS:          0
PSCL3 USEFUL LOAD PREFETCHES:          0 PREFETCH ISSUED TO LOWER LEVEL:          0  ACCURACY: -nan
PSCL3 TIMELY PREFETCHES:          0 LATE PREFETCHES: 0 DROPPED PREFETCHES: 0
PSCL3 PREFETCHES SAME FILL-ORIGIN LEVEL: 0 DIFFERENT FILL-ORIGIN LEVEL: 0

PSCL2 TOTAL     ACCESS:     100296  HIT:      95175  MISS:       5121  HIT %:    94.8941  MISS %:    5.10589   MPKI: 0.025605
PSCL2 LOAD TRANSLATION ACCESS:      71894  HIT:      66773  MISS:       5121  HIT %:     92.877  MISS %:    7.12299   MPKI: 0.025605
PSCL2 TRANSLATION FROM L1D PREFETCHER ACCESS:      28402  HIT:      28402  MISS:          0  HIT %:        100  MISS %:          0   MPKI: 0
PSCL2 PREFETCH  REQUESTED:          0  ISSUED:          0  USEFUL:          0  USELESS:          0
PSCL2 USEFUL LOAD PREFETCHES:          0 PREFETCH ISSUED TO LOWER LEVEL:          0  ACCURACY: -nan
PSCL2 TIMELY PREFETCHES:          0 LATE PREFETCHES: 0 DROPPED PREFETCHES: 0
PSCL2 PREFETCHES SAME FILL-ORIGIN LEVEL: 0 DIFFERENT FILL-ORIGIN LEVEL: 0

LLC TOTAL     ACCESS:   10615829  HIT:    4251112  MISS:    6364717  HIT %:     40.045  MISS %:     59.955   MPKI: 31.8236
LLC LOAD      ACCESS:    2332292  HIT:    1564967  MISS:     767325  HIT %:       67.1  MISS %:       32.9   MPKI: 3.83663
LLC RFO       ACCESS:    3537401  HIT:     977672  MISS:    2559729  HIT %:    27.6381  MISS %:    72.3619   MPKI: 12.7986
LLC PREFETCH  ACCESS:     657636  HIT:     142661  MISS:     514975  HIT %:     21.693  MISS %:     78.307   MPKI: 2.57488
AGUS PREFETCH L1 MISS: 0
LLC WRITEBACK ACCESS:    4037570  HIT:    1543833  MISS:    2493737  HIT %:    38.2367  MISS %:    61.7633   MPKI: 12.4687
LLC LOAD TRANSLATION ACCESS:      32307  HIT:      11567  MISS:      20740  HIT %:    35.8034  MISS %:    64.1966   MPKI: 0.1037
LLC TRANSLATION FROM L1D PREFETCHER ACCESS:      18623  HIT:      10412  MISS:       8211  HIT %:    55.9094  MISS %:    44.0906   MPKI: 0.041055
LLC PREFETCH  REQUESTED:          0  ISSUED:          0  USEFUL:       1909  USELESS:     521759
LLC USEFUL LOAD PREFETCHES:       1909 PREFETCH ISSUED TO LOWER LEVEL:     514975  ACCURACY: 0.370698
LLC TIMELY PREFETCHES:       1909 LATE PREFETCHES: 0 DROPPED PREFETCHES: 0
LLC PREFETCHES SAME FILL-ORIGIN LEVEL: 0 DIFFERENT FILL-ORIGIN LEVEL: 0
LLC AVERAGE MISS LATENCY: 135.073 cycles
LLC RQ	ACCESS:    5920706	FORWARD:          0	MERGED:          0	TO_CACHE:    5920628
LLC WQ	ACCESS:    4037571	FORWARD:         78	MERGED:          0	TO_CACHE:    4037571
LLC PQ	ACCESS:     657636	FORWARD:          0	MERGED:          0	TO_CACHE:     657636

LLC Dense regions hint to LLC: 0

RAW hits: 2436935
Loads Generated: 47572346
Loads sent to L1D: 45135411
Stores Generated: 34120702
Stores sent to L1D: 34120710
Major fault: 0 Minor fault: 8128
Allocated PAGES: 8128
Completed 

DRAM Statistics
 CHANNEL 0
 RQ ROW_BUFFER_HIT:    1837724  ROW_BUFFER_MISS:    2032843
 DBUS_CONGESTED:       2258
 WQ ROW_BUFFER_HIT:     554230  ROW_BUFFER_MISS:    2075954  FULL:      58525

 AVG_CONGESTED_CYCLE: 3
 All warmup complete: 2
Channel 0 Bank busy for read cycles: 0
Channel 0 Bank busy for write cycles: 0
Channel 0
Rank 0
0banks busy for read cycles: 169969252
0banks busy for write cycles: 274030
1banks busy for read cycles: 32519232
1banks busy for write cycles: 38022967
2banks busy for read cycles: 13959951
2banks busy for write cycles: 13599888
3banks busy for read cycles: 15674230
3banks busy for write cycles: 6212911
4banks busy for read cycles: 5922918
4banks busy for write cycles: 3978386
5banks busy for read cycles: 5010833
5banks busy for write cycles: 3217572
6banks busy for read cycles: 5824838
6banks busy for write cycles: 3154083
7banks busy for read cycles: 8634651
7banks busy for write cycles: 5652395
8banks busy for read cycles: 19024439
8banks busy for write cycles: 34677995

CPU 0 Branch Prediction Accuracy: 99.9481% MPKI: 0.07946 Average ROB Occupancy at Mispredict: 126.014
Branch types
NOT_BRANCH: 169359723 84.6799%
BRANCH_DIRECT_JUMP: 1652264 0.826132%
BRANCH_INDIRECT: 9950804 4.9754%
BRANCH_CONDITIONAL: 12232163 6.11608%
BRANCH_DIRECT_CALL: 2809801 1.4049%
BRANCH_INDIRECT_CALL: 592726 0.296363%
BRANCH_RETURN: 3402369 1.70118%
BRANCH_OTHER: 0 0%

DRAM PAGES: 1048576
Allocated PAGES: 8128
