
*** ChampSim Multicore Out-of-Order Simulator ***

Warmup Instructions: 50000000
Simulation Instructions: 200000000
Number of CPUs: 1
LLC sets: 2048
LLC ways: 16
Off-chip DRAM Size: 4096 MB Channels: 1 Width: 64-bit Data Rate: 6400 MT/s
CPU 0 runs traces/spec2k17/srv_66.champsimtrace.xz
.xz
BTB has LRU replacement policy
ITLB has LRU replacement policy
DTLB has LRU replacement policy
STLB has LRU replacement policy
L1I has LRU replacement policy
L1D has LRU replacement policy
Initialize SRRIP state for L2C
Initialize DRRIP state for LLC
Heartbeat CPU 0 instructions: 10000000 cycles: 2772158 heartbeat IPC: 3.6073 cumulative IPC: 3.6073 (Simulation time: 0 hr 0 min 24 sec) 
Heartbeat CPU 0 instructions: 20000000 cycles: 5534735 heartbeat IPC: 3.61981 cumulative IPC: 3.61354 (Simulation time: 0 hr 0 min 47 sec) 
Heartbeat CPU 0 instructions: 30000002 cycles: 8299491 heartbeat IPC: 3.61696 cumulative IPC: 3.61468 (Simulation time: 0 hr 1 min 11 sec) 
*** Reached end of trace for Core: 0 Repeating trace: traces/spec2k17/srv_66.champsimtrace.xz
Heartbeat CPU 0 instructions: 40000003 cycles: 11066638 heartbeat IPC: 3.61383 cumulative IPC: 3.61447 (Simulation time: 0 hr 1 min 34 sec) 
Heartbeat CPU 0 instructions: 50000001 cycles: 13831892 heartbeat IPC: 3.6163 cumulative IPC: 3.61483 (Simulation time: 0 hr 1 min 58 sec) 

Warmup complete CPU 0 instructions: 50000001 cycles: 13831892 (Simulation time: 0 hr 1 min 58 sec) 

Heartbeat CPU 0 instructions: 60000000 cycles: 35293989 heartbeat IPC: 0.465938 cumulative IPC: 0.465938 (Simulation time: 0 hr 2 min 35 sec) 
*** Reached end of trace for Core: 0 Repeating trace: traces/spec2k17/srv_66.champsimtrace.xz
Heartbeat CPU 0 instructions: 70000001 cycles: 57509033 heartbeat IPC: 0.450145 cumulative IPC: 0.457905 (Simulation time: 0 hr 3 min 13 sec) 
Heartbeat CPU 0 instructions: 80000002 cycles: 78963392 heartbeat IPC: 0.466106 cumulative IPC: 0.460607 (Simulation time: 0 hr 3 min 48 sec) 
Heartbeat CPU 0 instructions: 90000000 cycles: 100304379 heartbeat IPC: 0.468582 cumulative IPC: 0.462575 (Simulation time: 0 hr 4 min 21 sec) 
*** Reached end of trace for Core: 0 Repeating trace: traces/spec2k17/srv_66.champsimtrace.xz
Heartbeat CPU 0 instructions: 100000001 cycles: 122478638 heartbeat IPC: 0.450973 cumulative IPC: 0.460207 (Simulation time: 0 hr 4 min 54 sec) 
Heartbeat CPU 0 instructions: 110000000 cycles: 143735494 heartbeat IPC: 0.470436 cumulative IPC: 0.461881 (Simulation time: 0 hr 5 min 27 sec) 
Heartbeat CPU 0 instructions: 120000002 cycles: 165261669 heartbeat IPC: 0.464551 cumulative IPC: 0.46226 (Simulation time: 0 hr 6 min 0 sec) 
*** Reached end of trace for Core: 0 Repeating trace: traces/spec2k17/srv_66.champsimtrace.xz
Heartbeat CPU 0 instructions: 130000003 cycles: 187280390 heartbeat IPC: 0.454159 cumulative IPC: 0.461232 (Simulation time: 0 hr 6 min 34 sec) 
Heartbeat CPU 0 instructions: 140000002 cycles: 208593647 heartbeat IPC: 0.469191 cumulative IPC: 0.462103 (Simulation time: 0 hr 7 min 7 sec) 
Heartbeat CPU 0 instructions: 150000003 cycles: 230174421 heartbeat IPC: 0.463375 cumulative IPC: 0.46223 (Simulation time: 0 hr 7 min 40 sec) 
*** Reached end of trace for Core: 0 Repeating trace: traces/spec2k17/srv_66.champsimtrace.xz
Heartbeat CPU 0 instructions: 160000002 cycles: 251866048 heartbeat IPC: 0.461007 cumulative IPC: 0.462119 (Simulation time: 0 hr 8 min 13 sec) 
Heartbeat CPU 0 instructions: 170000003 cycles: 273349078 heartbeat IPC: 0.465484 cumulative IPC: 0.462397 (Simulation time: 0 hr 8 min 46 sec) 
Heartbeat CPU 0 instructions: 180000002 cycles: 294924206 heartbeat IPC: 0.463497 cumulative IPC: 0.462482 (Simulation time: 0 hr 9 min 20 sec) 
*** Reached end of trace for Core: 0 Repeating trace: traces/spec2k17/srv_66.champsimtrace.xz
Heartbeat CPU 0 instructions: 190000003 cycles: 316552349 heartbeat IPC: 0.462361 cumulative IPC: 0.462473 (Simulation time: 0 hr 9 min 53 sec) 
Heartbeat CPU 0 instructions: 200000002 cycles: 337943750 heartbeat IPC: 0.467478 cumulative IPC: 0.462803 (Simulation time: 0 hr 10 min 27 sec) 
Heartbeat CPU 0 instructions: 210000003 cycles: 359607400 heartbeat IPC: 0.461603 cumulative IPC: 0.462728 (Simulation time: 0 hr 11 min 1 sec) 
*** Reached end of trace for Core: 0 Repeating trace: traces/spec2k17/srv_66.champsimtrace.xz
Heartbeat CPU 0 instructions: 220000000 cycles: 381059116 heartbeat IPC: 0.466163 cumulative IPC: 0.462929 (Simulation time: 0 hr 11 min 34 sec) 
Heartbeat CPU 0 instructions: 230000002 cycles: 402517534 heartbeat IPC: 0.466018 cumulative IPC: 0.463099 (Simulation time: 0 hr 12 min 7 sec) 
Heartbeat CPU 0 instructions: 240000002 cycles: 424101227 heartbeat IPC: 0.463313 cumulative IPC: 0.46311 (Simulation time: 0 hr 12 min 41 sec) 
*** Reached end of trace for Core: 0 Repeating trace: traces/spec2k17/srv_66.champsimtrace.xz
Heartbeat CPU 0 instructions: 250000003 cycles: 445404229 heartbeat IPC: 0.469417 cumulative IPC: 0.463422 (Simulation time: 0 hr 13 min 13 sec) 
Finished CPU 0 instructions: 200000002 cycles: 431572337 cumulative IPC: 0.463422 (Simulation time: 0 hr 13 min 13 sec) 

ChampSim completed all CPUs

Region of Interest Statistics

CPU 0 cumulative IPC: 0.463422 instructions: 200000002 cycles: 431572337
ITLB TOTAL     ACCESS:   31543245  HIT:   30749484  MISS:     793761  HIT %:    97.4836  MISS %:    2.51642   MPKI: 3.9688
ITLB LOAD TRANSLATION ACCESS:   31543245  HIT:   30749484  MISS:     793761  HIT %:    97.4836  MISS %:    2.51642   MPKI: 3.9688
ITLB PREFETCH  REQUESTED:          0  ISSUED:          0  USEFUL:          0  USELESS:          0
ITLB USEFUL LOAD PREFETCHES:          0 PREFETCH ISSUED TO LOWER LEVEL:          0  ACCURACY: -nan
ITLB TIMELY PREFETCHES:          0 LATE PREFETCHES: 0 DROPPED PREFETCHES: 0
ITLB PREFETCHES SAME FILL-ORIGIN LEVEL: 0 DIFFERENT FILL-ORIGIN LEVEL: 0
ITLB AVERAGE MISS LATENCY: 14.0183 cycles
ITLB RQ	ACCESS:   38319706	FORWARD:          0	MERGED:    6582219	TO_CACHE:   31737487

DTLB TOTAL     ACCESS:   36970024  HIT:   34401184  MISS:    2568840  HIT %:    93.0516  MISS %:    6.94844   MPKI: 12.8442
DTLB LOAD TRANSLATION ACCESS:   36970024  HIT:   34401184  MISS:    2568840  HIT %:    93.0516  MISS %:    6.94844   MPKI: 12.8442
DTLB PREFETCH  REQUESTED:          0  ISSUED:          0  USEFUL:          0  USELESS:          0
DTLB USEFUL LOAD PREFETCHES:          0 PREFETCH ISSUED TO LOWER LEVEL:          0  ACCURACY: -nan
DTLB TIMELY PREFETCHES:          0 LATE PREFETCHES: 0 DROPPED PREFETCHES: 0
DTLB PREFETCHES SAME FILL-ORIGIN LEVEL: 0 DIFFERENT FILL-ORIGIN LEVEL: 0
DTLB AVERAGE MISS LATENCY: 13.138 cycles
DTLB RQ	ACCESS:   47507876	FORWARD:          0	MERGED:   10392358	TO_CACHE:   37115518

STLB TOTAL     ACCESS:   11486020  HIT:   11138149  MISS:     347871  HIT %:    96.9714  MISS %:    3.02865   MPKI: 1.73935
STLB LOAD TRANSLATION ACCESS:    3362601  HIT:    3024823  MISS:     337778  HIT %:    89.9549  MISS %:    10.0451   MPKI: 1.68889
STLB TRANSLATION FROM L1D PREFETCHER ACCESS:    8123419  HIT:    8113326  MISS:      10093  HIT %:    99.8758  MISS %:   0.124246   MPKI: 0.050465
STLB PREFETCH  REQUESTED:          0  ISSUED:          0  USEFUL:       8506  USELESS:       1583
STLB USEFUL LOAD PREFETCHES:       8506 PREFETCH ISSUED TO LOWER LEVEL:          0  ACCURACY: inf
STLB TIMELY PREFETCHES:       8506 LATE PREFETCHES: 2264 DROPPED PREFETCHES: 367797
STLB PREFETCHES SAME FILL-ORIGIN LEVEL: 0 DIFFERENT FILL-ORIGIN LEVEL: 0
STLB AVERAGE MISS LATENCY: 2438.06 cycles
STLB RQ	ACCESS:   13569991	FORWARD:          0	MERGED:    1711829	TO_CACHE:   11858162

STLB Hit, L1D data hit: 0
STLB Hit, L2C data hit: 0
STLB Hit, LLC data hit: 0
STLB Hit, LLC data miss: 0
STLB STLB hints to L2: 0
L1D TOTAL     ACCESS:   56600349  HIT:   54056581  MISS:    2543768  HIT %:    95.5057  MISS %:    4.49426   MPKI: 12.7188
L1D LOAD      ACCESS:   27400438  HIT:   25404805  MISS:    1995633  HIT %:    92.7168  MISS %:    7.28322   MPKI: 9.97816
L1D RFO       ACCESS:   19571183  HIT:   19247391  MISS:     323792  HIT %:    98.3456  MISS %:    1.65443   MPKI: 1.61896
L1D PREFETCH  ACCESS:    9628728  HIT:    9404385  MISS:     224343  HIT %:    97.6701  MISS %:    2.32993   MPKI: 1.12171
AGUS PREFETCH L1 MISS: 0
L1D PREFETCH  REQUESTED:   22025796  ISSUED:   22023449  USEFUL:     136754  USELESS:      87577
L1D USEFUL LOAD PREFETCHES:     136754 PREFETCH ISSUED TO LOWER LEVEL:     289801  ACCURACY: 47.1889
L1D TIMELY PREFETCHES:     136754 LATE PREFETCHES: 65259 DROPPED PREFETCHES: 401561
L1D PREFETCHES SAME FILL-ORIGIN LEVEL: 289801 DIFFERENT FILL-ORIGIN LEVEL: 0
L1D AVERAGE MISS LATENCY: 7.59261e+06 cycles
L1D RQ	ACCESS:   42102344	FORWARD:          0	MERGED:   14321114	TO_CACHE:   27531850
L1D WQ	ACCESS:   20281804	FORWARD:     293777	MERGED:     305778	TO_CACHE:   19976026
L1D PQ	ACCESS:   11816059	FORWARD:          0	MERGED:    1564272	TO_CACHE:   10207390

L1D UNIQUE REGIONS ACCESSED: 0
L1D REGIONS CONFLICTS: 0
L1D Cross Page Prefetch Requests: 8551337
L1D Same Page Prefetch Requests: 5098844
L1D ROI Sum of L1D PQ occupancy: 158905048
L1D PREFETCHES PUSHED FROM L2C: 0
L1I TOTAL     ACCESS:   36538830  HIT:   31500368  MISS:    5038462  HIT %:    86.2107  MISS %:    13.7893   MPKI: 25.1923
L1I LOAD      ACCESS:   36538830  HIT:   31500368  MISS:    5038462  HIT %:    86.2107  MISS %:    13.7893   MPKI: 25.1923
L1I PREFETCH  REQUESTED:          0  ISSUED:          0  USEFUL:          0  USELESS:          0
L1I USEFUL LOAD PREFETCHES:          0 PREFETCH ISSUED TO LOWER LEVEL:          0  ACCURACY: -nan
L1I TIMELY PREFETCHES:          0 LATE PREFETCHES: 0 DROPPED PREFETCHES: 0
L1I PREFETCHES SAME FILL-ORIGIN LEVEL: 0 DIFFERENT FILL-ORIGIN LEVEL: 0
L1I AVERAGE MISS LATENCY: 25.2017 cycles
L1I RQ	ACCESS:   57205623	FORWARD:          0	MERGED:   18885917	TO_CACHE:   38319706

BTB TOTAL     ACCESS:   22223393  HIT:   18065540  MISS:    4157853  HIT %:    81.2906  MISS %:    18.7094   MPKI: 20.7893
BTB BRANCH_DIRECT_JUMP	ACCESS:    1718257  HIT:    1473997  MISS:     244260
BTB BRANCH_INDIRECT	ACCESS:    9436323  HIT:    7433911  MISS:    2002412
BTB BRANCH_CONDITIONAL	ACCESS:    4754690  HIT:    4374903  MISS:     379787
BTB BRANCH_DIRECT_CALL	ACCESS:    2480173  HIT:    2032253  MISS:     447920
BTB BRANCH_INDIRECT_CALL	ACCESS:     676469  HIT:     636836  MISS:      39633
BTB BRANCH_RETURN	ACCESS:    3157481  HIT:    2113640  MISS:    1043841
BTB BRANCH_OTHER ACCESS:          0  HIT:          0  MISS:          0

L2C TOTAL     ACCESS:    9508682  HIT:    6355200  MISS:    3153482  HIT %:    66.8358  MISS %:    33.1642   MPKI: 15.7674
L2C LOAD      ACCESS:    6968785  HIT:    4314700  MISS:    2654085  HIT %:    61.9147  MISS %:    38.0853   MPKI: 13.2704
L2C DATA LOAD MPKI: 4.37242
L2C INSTRUCTION LOAD MPKI: 8.898
L2C RFO       ACCESS:     323593  HIT:     179535  MISS:     144058  HIT %:    55.4817  MISS %:    44.5183   MPKI: 0.72029
L2C PREFETCH  ACCESS:     289781  HIT:     195011  MISS:      94770  HIT %:     67.296  MISS %:     32.704   MPKI: 0.47385
AGUS PREFETCH L1 MISS: 0
L2C DATA PREFETCH MPKI: 0.47385
L2C INSTRUCTION PREFETCH MPKI: 0
L2C WRITEBACK ACCESS:    1011387  HIT:     954798  MISS:      56589  HIT %:    94.4048  MISS %:    5.59519   MPKI: 0.282945
L2C LOAD TRANSLATION ACCESS:     443643  HIT:     273534  MISS:     170109  HIT %:    61.6563  MISS %:    38.3437   MPKI: 0.850545
L2C TRANSLATION FROM L1D PREFETCHER ACCESS:     471493  HIT:     437622  MISS:      33871  HIT %:    92.8162  MISS %:    7.18378   MPKI: 0.169355
L2C PREFETCH  REQUESTED:          0  ISSUED:          0  USEFUL:      27977  USELESS:     100500
L2C USEFUL LOAD PREFETCHES:      27977 PREFETCH ISSUED TO LOWER LEVEL:      94770  ACCURACY: 29.5209
L2C TIMELY PREFETCHES:      27977 LATE PREFETCHES: 0 DROPPED PREFETCHES: 0
L2C PREFETCHES SAME FILL-ORIGIN LEVEL: 0 DIFFERENT FILL-ORIGIN LEVEL: 0
L2C AVERAGE MISS LATENCY: 44.5882 cycles
L2C RQ	ACCESS:    8207566	FORWARD:          0	MERGED:          0	TO_CACHE:    8207515
L2C WQ	ACCESS:    1011387	FORWARD:         71	MERGED:          0	TO_CACHE:    1011387
L2C PQ	ACCESS:     289801	FORWARD:          0	MERGED:          0	TO_CACHE:     289781

L2C Instructions Evicting Data 632609
L2C Translations Evicting Data 79794
L2C Data Evicting Data 435513
L2C Instructions Evicting Instructions 1037656
L2C Translations Evicting Instructions 108507
L2C Data Evicting Instructions 602166
L2C Instructions Evicting Translations 109336
L2C Translations Evicting Translations 15679
L2C Data Evicting Translations 75633
L2C Dense regions hint from L2: 0
PSCL5 TOTAL     ACCESS:     638713  HIT:     638713  MISS:          0  HIT %:        100  MISS %:          0   MPKI: 0
PSCL5 LOAD TRANSLATION ACCESS:     335514  HIT:     335514  MISS:          0  HIT %:        100  MISS %:          0   MPKI: 0
PSCL5 TRANSLATION FROM L1D PREFETCHER ACCESS:     303199  HIT:     303199  MISS:          0  HIT %:        100  MISS %:          0   MPKI: 0
PSCL5 PREFETCH  REQUESTED:          0  ISSUED:          0  USEFUL:          0  USELESS:          0
PSCL5 USEFUL LOAD PREFETCHES:          0 PREFETCH ISSUED TO LOWER LEVEL:          0  ACCURACY: -nan
PSCL5 TIMELY PREFETCHES:          0 LATE PREFETCHES: 0 DROPPED PREFETCHES: 0
PSCL5 PREFETCHES SAME FILL-ORIGIN LEVEL: 0 DIFFERENT FILL-ORIGIN LEVEL: 0

PSCL4 TOTAL     ACCESS:     609094  HIT:     607809  MISS:       1285  HIT %:     99.789  MISS %:   0.210969   MPKI: 0.006425
PSCL4 LOAD TRANSLATION ACCESS:     326553  HIT:     325268  MISS:       1285  HIT %:    99.6065  MISS %:   0.393504   MPKI: 0.006425
PSCL4 TRANSLATION FROM L1D PREFETCHER ACCESS:     282541  HIT:     282541  MISS:          0  HIT %:        100  MISS %:          0   MPKI: 0
PSCL4 PREFETCH  REQUESTED:          0  ISSUED:          0  USEFUL:          0  USELESS:          0
PSCL4 USEFUL LOAD PREFETCHES:          0 PREFETCH ISSUED TO LOWER LEVEL:          0  ACCURACY: -nan
PSCL4 TIMELY PREFETCHES:          0 LATE PREFETCHES: 0 DROPPED PREFETCHES: 0
PSCL4 PREFETCHES SAME FILL-ORIGIN LEVEL: 0 DIFFERENT FILL-ORIGIN LEVEL: 0

PSCL3 TOTAL     ACCESS:     590991  HIT:     589706  MISS:       1285  HIT %:    99.7826  MISS %:   0.217431   MPKI: 0.006425
PSCL3 LOAD TRANSLATION ACCESS:     333002  HIT:     331717  MISS:       1285  HIT %:    99.6141  MISS %:   0.385884   MPKI: 0.006425
PSCL3 TRANSLATION FROM L1D PREFETCHER ACCESS:     257989  HIT:     257989  MISS:          0  HIT %:        100  MISS %:          0   MPKI: 0
PSCL3 PREFETCH  REQUESTED:          0  ISSUED:          0  USEFUL:          0  USELESS:          0
PSCL3 USEFUL LOAD PREFETCHES:          0 PREFETCH ISSUED TO LOWER LEVEL:          0  ACCURACY: -nan
PSCL3 TIMELY PREFETCHES:          0 LATE PREFETCHES: 0 DROPPED PREFETCHES: 0
PSCL3 PREFETCHES SAME FILL-ORIGIN LEVEL: 0 DIFFERENT FILL-ORIGIN LEVEL: 0

PSCL2 TOTAL     ACCESS:     373487  HIT:     261363  MISS:     112124  HIT %:    69.9791  MISS %:    30.0209   MPKI: 0.56062
PSCL2 LOAD TRANSLATION ACCESS:     341949  HIT:     229825  MISS:     112124  HIT %:    67.2103  MISS %:    32.7897   MPKI: 0.56062
PSCL2 TRANSLATION FROM L1D PREFETCHER ACCESS:      31538  HIT:      31538  MISS:          0  HIT %:        100  MISS %:          0   MPKI: 0
PSCL2 PREFETCH  REQUESTED:          0  ISSUED:          0  USEFUL:          0  USELESS:          0
PSCL2 USEFUL LOAD PREFETCHES:          0 PREFETCH ISSUED TO LOWER LEVEL:          0  ACCURACY: -nan
PSCL2 TIMELY PREFETCHES:          0 LATE PREFETCHES: 0 DROPPED PREFETCHES: 0
PSCL2 PREFETCHES SAME FILL-ORIGIN LEVEL: 0 DIFFERENT FILL-ORIGIN LEVEL: 0

LLC TOTAL     ACCESS:    3531075  HIT:    3214970  MISS:     316105  HIT %:    91.0479  MISS %:    8.95209   MPKI: 1.58052
LLC LOAD      ACCESS:    2654085  HIT:    2411615  MISS:     242470  HIT %:    90.8643  MISS %:    9.13573   MPKI: 1.21235
LLC RFO       ACCESS:     144057  HIT:      96722  MISS:      47335  HIT %:    67.1415  MISS %:    32.8585   MPKI: 0.236675
LLC PREFETCH  ACCESS:      94770  HIT:      85023  MISS:       9747  HIT %:    89.7151  MISS %:    10.2849   MPKI: 0.048735
AGUS PREFETCH L1 MISS: 0
LLC WRITEBACK ACCESS:     434183  HIT:     432157  MISS:       2026  HIT %:    99.5334  MISS %:   0.466624   MPKI: 0.01013
LLC LOAD TRANSLATION ACCESS:     170109  HIT:     157689  MISS:      12420  HIT %:    92.6988  MISS %:     7.3012   MPKI: 0.0621
LLC TRANSLATION FROM L1D PREFETCHER ACCESS:      33871  HIT:      31764  MISS:       2107  HIT %:    93.7793  MISS %:    6.22066   MPKI: 0.010535
LLC PREFETCH  REQUESTED:          0  ISSUED:          0  USEFUL:       1883  USELESS:       9739
LLC USEFUL LOAD PREFETCHES:       1883 PREFETCH ISSUED TO LOWER LEVEL:       9747  ACCURACY: 19.3188
LLC TIMELY PREFETCHES:       1883 LATE PREFETCHES: 0 DROPPED PREFETCHES: 0
LLC PREFETCHES SAME FILL-ORIGIN LEVEL: 0 DIFFERENT FILL-ORIGIN LEVEL: 0
LLC AVERAGE MISS LATENCY: 150.899 cycles
LLC RQ	ACCESS:    3002124	FORWARD:          0	MERGED:          0	TO_CACHE:    3002123
LLC WQ	ACCESS:     434183	FORWARD:          1	MERGED:          0	TO_CACHE:     434183
LLC PQ	ACCESS:      94770	FORWARD:          0	MERGED:          0	TO_CACHE:      94770

LLC Dense regions hint to LLC: 0

RAW hits: 2865896
Loads Generated: 44968240
Loads sent to L1D: 42102344
Stores Generated: 20281799
Stores sent to L1D: 20281804
Major fault: 0 Minor fault: 6269
Allocated PAGES: 6269
Completed 

DRAM Statistics
 CHANNEL 0
 RQ ROW_BUFFER_HIT:      62529  ROW_BUFFER_MISS:     251546
 DBUS_CONGESTED:        192
 WQ ROW_BUFFER_HIT:      31626  ROW_BUFFER_MISS:     187692  FULL:          0

 AVG_CONGESTED_CYCLE: 4
 All warmup complete: 2
Channel 0 Bank busy for read cycles: 0
Channel 0 Bank busy for write cycles: 0
Channel 0
Rank 0
0banks busy for read cycles: 372723938
0banks busy for write cycles: 122749
1banks busy for read cycles: 28672344
1banks busy for write cycles: 17281206
2banks busy for read cycles: 3963497
2banks busy for write cycles: 4242819
3banks busy for read cycles: 558711
3banks busy for write cycles: 1464519
4banks busy for read cycles: 228603
4banks busy for write cycles: 759322
5banks busy for read cycles: 94311
5banks busy for write cycles: 436091
6banks busy for read cycles: 70876
6banks busy for write cycles: 319332
7banks busy for read cycles: 50414
7banks busy for write cycles: 259728
8banks busy for read cycles: 52472
8banks busy for write cycles: 271406

CPU 0 Branch Prediction Accuracy: 99.8407% MPKI: 0.28518 Average ROB Occupancy at Mispredict: 48.2
Branch types
NOT_BRANCH: 164201220 82.1006%
BRANCH_DIRECT_JUMP: 1718257 0.859128%
BRANCH_INDIRECT: 9436323 4.71816%
BRANCH_CONDITIONAL: 18329753 9.16488%
BRANCH_DIRECT_CALL: 2480173 1.24009%
BRANCH_INDIRECT_CALL: 676469 0.338234%
BRANCH_RETURN: 3157481 1.57874%
BRANCH_OTHER: 0 0%

DRAM PAGES: 1048576
Allocated PAGES: 6269
