
*** ChampSim Multicore Out-of-Order Simulator ***

Warmup Instructions: 50000000
Simulation Instructions: 200000000
Number of CPUs: 1
LLC sets: 2048
LLC ways: 16
Off-chip DRAM Size: 4096 MB Channels: 1 Width: 64-bit Data Rate: 6400 MT/s
CPU 0 runs traces/spec2k17/srv_41.champsimtrace.xz
.xz
BTB has LRU replacement policy
ITLB has LRU replacement policy
DTLB has LRU replacement policy
STLB has LRU replacement policy
L1I has LRU replacement policy
L1D has LRU replacement policy
Initialize SRRIP state for L2C
Initialize DRRIP state for LLC
Heartbeat CPU 0 instructions: 10000000 cycles: 2869664 heartbeat IPC: 3.48473 cumulative IPC: 3.48473 (Simulation time: 0 hr 0 min 23 sec) 
Heartbeat CPU 0 instructions: 20000003 cycles: 5730694 heartbeat IPC: 3.49525 cumulative IPC: 3.48998 (Simulation time: 0 hr 0 min 47 sec) 
Heartbeat CPU 0 instructions: 30000002 cycles: 8608526 heartbeat IPC: 3.47484 cumulative IPC: 3.48492 (Simulation time: 0 hr 1 min 11 sec) 
*** Reached end of trace for Core: 0 Repeating trace: traces/spec2k17/srv_41.champsimtrace.xz
Heartbeat CPU 0 instructions: 40000001 cycles: 11457032 heartbeat IPC: 3.51061 cumulative IPC: 3.49131 (Simulation time: 0 hr 1 min 36 sec) 
Heartbeat CPU 0 instructions: 50000000 cycles: 14322549 heartbeat IPC: 3.48977 cumulative IPC: 3.491 (Simulation time: 0 hr 1 min 59 sec) 

Warmup complete CPU 0 instructions: 50000004 cycles: 14322550 (Simulation time: 0 hr 1 min 59 sec) 

Heartbeat CPU 0 instructions: 60000002 cycles: 40161570 heartbeat IPC: 0.387012 cumulative IPC: 0.387011 (Simulation time: 0 hr 2 min 34 sec) 
*** Reached end of trace for Core: 0 Repeating trace: traces/spec2k17/srv_41.champsimtrace.xz
Heartbeat CPU 0 instructions: 70000002 cycles: 60530609 heartbeat IPC: 0.490941 cumulative IPC: 0.432825 (Simulation time: 0 hr 3 min 8 sec) 
Heartbeat CPU 0 instructions: 80000002 cycles: 83172832 heartbeat IPC: 0.441653 cumulative IPC: 0.435728 (Simulation time: 0 hr 3 min 42 sec) 
Heartbeat CPU 0 instructions: 90000000 cycles: 108485431 heartbeat IPC: 0.39506 cumulative IPC: 0.424796 (Simulation time: 0 hr 4 min 18 sec) 
*** Reached end of trace for Core: 0 Repeating trace: traces/spec2k17/srv_41.champsimtrace.xz
Heartbeat CPU 0 instructions: 100000001 cycles: 129194928 heartbeat IPC: 0.48287 cumulative IPC: 0.435266 (Simulation time: 0 hr 4 min 52 sec) 
Heartbeat CPU 0 instructions: 110000000 cycles: 152453870 heartbeat IPC: 0.429942 cumulative IPC: 0.434369 (Simulation time: 0 hr 5 min 26 sec) 
Heartbeat CPU 0 instructions: 120000001 cycles: 177419682 heartbeat IPC: 0.400548 cumulative IPC: 0.429192 (Simulation time: 0 hr 6 min 1 sec) 
*** Reached end of trace for Core: 0 Repeating trace: traces/spec2k17/srv_41.champsimtrace.xz
Heartbeat CPU 0 instructions: 130000003 cycles: 198571064 heartbeat IPC: 0.472782 cumulative IPC: 0.434196 (Simulation time: 0 hr 6 min 35 sec) 
Heartbeat CPU 0 instructions: 140000000 cycles: 221340162 heartbeat IPC: 0.439192 cumulative IPC: 0.434746 (Simulation time: 0 hr 7 min 10 sec) 
Heartbeat CPU 0 instructions: 150000003 cycles: 245731064 heartbeat IPC: 0.409989 cumulative IPC: 0.432136 (Simulation time: 0 hr 7 min 45 sec) 
*** Reached end of trace for Core: 0 Repeating trace: traces/spec2k17/srv_41.champsimtrace.xz
Heartbeat CPU 0 instructions: 160000000 cycles: 267037445 heartbeat IPC: 0.469343 cumulative IPC: 0.435273 (Simulation time: 0 hr 8 min 20 sec) 
Heartbeat CPU 0 instructions: 170000000 cycles: 291344153 heartbeat IPC: 0.411409 cumulative IPC: 0.433179 (Simulation time: 0 hr 8 min 54 sec) 
Heartbeat CPU 0 instructions: 180000001 cycles: 314033160 heartbeat IPC: 0.440742 cumulative IPC: 0.433752 (Simulation time: 0 hr 9 min 29 sec) 
*** Reached end of trace for Core: 0 Repeating trace: traces/spec2k17/srv_41.champsimtrace.xz
Heartbeat CPU 0 instructions: 190000000 cycles: 335481539 heartbeat IPC: 0.466236 cumulative IPC: 0.435921 (Simulation time: 0 hr 10 min 4 sec) 
Heartbeat CPU 0 instructions: 200000000 cycles: 360071947 heartbeat IPC: 0.406663 cumulative IPC: 0.43384 (Simulation time: 0 hr 10 min 39 sec) 
Heartbeat CPU 0 instructions: 210000003 cycles: 381603934 heartbeat IPC: 0.464425 cumulative IPC: 0.435633 (Simulation time: 0 hr 11 min 13 sec) 
*** Reached end of trace for Core: 0 Repeating trace: traces/spec2k17/srv_41.champsimtrace.xz
Heartbeat CPU 0 instructions: 220000000 cycles: 405181466 heartbeat IPC: 0.424132 cumulative IPC: 0.43494 (Simulation time: 0 hr 11 min 48 sec) 
Heartbeat CPU 0 instructions: 230000000 cycles: 428035218 heartbeat IPC: 0.437565 cumulative IPC: 0.435085 (Simulation time: 0 hr 12 min 23 sec) 
Heartbeat CPU 0 instructions: 240000000 cycles: 449813495 heartbeat IPC: 0.459173 cumulative IPC: 0.436289 (Simulation time: 0 hr 12 min 57 sec) 
*** Reached end of trace for Core: 0 Repeating trace: traces/spec2k17/srv_41.champsimtrace.xz
Heartbeat CPU 0 instructions: 250000002 cycles: 473780774 heartbeat IPC: 0.417236 cumulative IPC: 0.435295 (Simulation time: 0 hr 13 min 34 sec) 
Finished CPU 0 instructions: 200000002 cycles: 459458225 cumulative IPC: 0.435295 (Simulation time: 0 hr 13 min 34 sec) 

ChampSim completed all CPUs

Region of Interest Statistics

CPU 0 cumulative IPC: 0.435295 instructions: 200000002 cycles: 459458225
ITLB TOTAL     ACCESS:   34227066  HIT:   33340960  MISS:     886106  HIT %:    97.4111  MISS %:     2.5889   MPKI: 4.43053
ITLB LOAD TRANSLATION ACCESS:   34227066  HIT:   33340960  MISS:     886106  HIT %:    97.4111  MISS %:     2.5889   MPKI: 4.43053
ITLB PREFETCH  REQUESTED:          0  ISSUED:          0  USEFUL:          0  USELESS:          0
ITLB USEFUL LOAD PREFETCHES:          0 PREFETCH ISSUED TO LOWER LEVEL:          0  ACCURACY: -nan
ITLB TIMELY PREFETCHES:          0 LATE PREFETCHES: 0 DROPPED PREFETCHES: 0
ITLB PREFETCHES SAME FILL-ORIGIN LEVEL: 0 DIFFERENT FILL-ORIGIN LEVEL: 0
ITLB AVERAGE MISS LATENCY: 10.407 cycles
ITLB RQ	ACCESS:   39106748	FORWARD:          0	MERGED:    4618845	TO_CACHE:   34487903

DTLB TOTAL     ACCESS:   38130961  HIT:   37147427  MISS:     983534  HIT %:    97.4206  MISS %:    2.57936   MPKI: 4.91767
DTLB LOAD TRANSLATION ACCESS:   38130961  HIT:   37147427  MISS:     983534  HIT %:    97.4206  MISS %:    2.57936   MPKI: 4.91767
DTLB PREFETCH  REQUESTED:          0  ISSUED:          0  USEFUL:          0  USELESS:          0
DTLB USEFUL LOAD PREFETCHES:          0 PREFETCH ISSUED TO LOWER LEVEL:          0  ACCURACY: -nan
DTLB TIMELY PREFETCHES:          0 LATE PREFETCHES: 0 DROPPED PREFETCHES: 0
DTLB PREFETCHES SAME FILL-ORIGIN LEVEL: 0 DIFFERENT FILL-ORIGIN LEVEL: 0
DTLB AVERAGE MISS LATENCY: 14.4909 cycles
DTLB RQ	ACCESS:   50528662	FORWARD:          0	MERGED:   12329215	TO_CACHE:   38199447

STLB TOTAL     ACCESS:    7766432  HIT:    7659614  MISS:     106818  HIT %:    98.6246  MISS %:    1.37538   MPKI: 0.53409
STLB LOAD TRANSLATION ACCESS:    1869640  HIT:    1766569  MISS:     103071  HIT %:    94.4871  MISS %:    5.51288   MPKI: 0.515355
STLB TRANSLATION FROM L1D PREFETCHER ACCESS:    5896792  HIT:    5893045  MISS:       3747  HIT %:    99.9365  MISS %:   0.063543   MPKI: 0.018735
STLB PREFETCH  REQUESTED:          0  ISSUED:          0  USEFUL:       2827  USELESS:        921
STLB USEFUL LOAD PREFETCHES:       2827 PREFETCH ISSUED TO LOWER LEVEL:          0  ACCURACY: inf
STLB TIMELY PREFETCHES:       2827 LATE PREFETCHES: 408 DROPPED PREFETCHES: 163285
STLB PREFETCHES SAME FILL-ORIGIN LEVEL: 0 DIFFERENT FILL-ORIGIN LEVEL: 0
STLB AVERAGE MISS LATENCY: 8157.99 cycles
STLB RQ	ACCESS:    9189973	FORWARD:          0	MERGED:    1259315	TO_CACHE:    7930658

STLB Hit, L1D data hit: 0
STLB Hit, L2C data hit: 0
STLB Hit, LLC data hit: 0
STLB Hit, LLC data miss: 0
STLB STLB hints to L2: 0
L1D TOTAL     ACCESS:   56531715  HIT:   54048485  MISS:    2483230  HIT %:    95.6074  MISS %:    4.39263   MPKI: 12.4161
L1D LOAD      ACCESS:   30390397  HIT:   28775959  MISS:    1614438  HIT %:    94.6877  MISS %:    5.31233   MPKI: 8.07219
L1D RFO       ACCESS:   19132793  HIT:   18462608  MISS:     670185  HIT %:    96.4972  MISS %:    3.50281   MPKI: 3.35092
L1D PREFETCH  ACCESS:    7008525  HIT:    6809918  MISS:     198607  HIT %:    97.1662  MISS %:    2.83379   MPKI: 0.993035
AGUS PREFETCH L1 MISS: 0
L1D PREFETCH  REQUESTED:   15817213  ISSUED:   15815599  USEFUL:     101556  USELESS:      97020
L1D USEFUL LOAD PREFETCHES:     101556 PREFETCH ISSUED TO LOWER LEVEL:     240783  ACCURACY: 42.1774
L1D TIMELY PREFETCHES:     101556 LATE PREFETCHES: 41726 DROPPED PREFETCHES: 182269
L1D PREFETCHES SAME FILL-ORIGIN LEVEL: 240783 DIFFERENT FILL-ORIGIN LEVEL: 0
L1D AVERAGE MISS LATENCY: 5.35372e+06 cycles
L1D RQ	ACCESS:   41939455	FORWARD:          0	MERGED:   11159640	TO_CACHE:   30512625
L1D WQ	ACCESS:   20245042	FORWARD:     279045	MERGED:     229005	TO_CACHE:   20016037
L1D PQ	ACCESS:    8495266	FORWARD:          0	MERGED:    1163078	TO_CACHE:    7320333

L1D UNIQUE REGIONS ACCESSED: 0
L1D REGIONS CONFLICTS: 0
L1D Cross Page Prefetch Requests: 5476561
L1D Same Page Prefetch Requests: 4040813
L1D ROI Sum of L1D PQ occupancy: 111402464
L1D PREFETCHES PUSHED FROM L2C: 0
L1I TOTAL     ACCESS:   38313566  HIT:   33574598  MISS:    4738968  HIT %:    87.6311  MISS %:    12.3689   MPKI: 23.6948
L1I LOAD      ACCESS:   38313566  HIT:   33574598  MISS:    4738968  HIT %:    87.6311  MISS %:    12.3689   MPKI: 23.6948
L1I PREFETCH  REQUESTED:          0  ISSUED:          0  USEFUL:          0  USELESS:          0
L1I USEFUL LOAD PREFETCHES:          0 PREFETCH ISSUED TO LOWER LEVEL:          0  ACCURACY: -nan
L1I TIMELY PREFETCHES:          0 LATE PREFETCHES: 0 DROPPED PREFETCHES: 0
L1I PREFETCHES SAME FILL-ORIGIN LEVEL: 0 DIFFERENT FILL-ORIGIN LEVEL: 0
L1I AVERAGE MISS LATENCY: 22.5345 cycles
L1I RQ	ACCESS:   60538275	FORWARD:          0	MERGED:   21431527	TO_CACHE:   39106748

BTB TOTAL     ACCESS:   31960684  HIT:   26197910  MISS:    5762774  HIT %:    81.9692  MISS %:    18.0308   MPKI: 28.8139
BTB BRANCH_DIRECT_JUMP	ACCESS:    3125250  HIT:    2730574  MISS:     394676
BTB BRANCH_INDIRECT	ACCESS:   11716382  HIT:    9367715  MISS:    2348667
BTB BRANCH_CONDITIONAL	ACCESS:   10786856  HIT:   10320288  MISS:     466568
BTB BRANCH_DIRECT_CALL	ACCESS:    2710252  HIT:    1976262  MISS:     733990
BTB BRANCH_INDIRECT_CALL	ACCESS:     455858  HIT:     278081  MISS:     177777
BTB BRANCH_RETURN	ACCESS:    3166086  HIT:    1524990  MISS:    1641096
BTB BRANCH_OTHER ACCESS:          0  HIT:          0  MISS:          0

L2C TOTAL     ACCESS:    8900930  HIT:    6219922  MISS:    2681008  HIT %:    69.8795  MISS %:    30.1205   MPKI: 13.405
L2C LOAD      ACCESS:    6311643  HIT:    4314851  MISS:    1996792  HIT %:    68.3634  MISS %:    31.6366   MPKI: 9.98396
L2C DATA LOAD MPKI: 3.574
L2C INSTRUCTION LOAD MPKI: 6.40996
L2C RFO       ACCESS:     669720  HIT:     281888  MISS:     387832  HIT %:    42.0904  MISS %:    57.9096   MPKI: 1.93916
L2C PREFETCH  ACCESS:     240774  HIT:     142546  MISS:      98228  HIT %:    59.2032  MISS %:    40.7968   MPKI: 0.49114
AGUS PREFETCH L1 MISS: 0
L2C DATA PREFETCH MPKI: 0.49114
L2C INSTRUCTION PREFETCH MPKI: 0
L2C WRITEBACK ACCESS:    1234338  HIT:    1148125  MISS:      86213  HIT %:    93.0154  MISS %:    6.98455   MPKI: 0.431065
L2C LOAD TRANSLATION ACCESS:     160873  HIT:      80247  MISS:      80626  HIT %:    49.8822  MISS %:    50.1178   MPKI: 0.40313
L2C TRANSLATION FROM L1D PREFETCHER ACCESS:     283582  HIT:     252265  MISS:      31317  HIT %:    88.9566  MISS %:    11.0434   MPKI: 0.156585
L2C PREFETCH  REQUESTED:          0  ISSUED:          0  USEFUL:      26332  USELESS:     102920
L2C USEFUL LOAD PREFETCHES:      26332 PREFETCH ISSUED TO LOWER LEVEL:      98228  ACCURACY: 26.807
L2C TIMELY PREFETCHES:      26332 LATE PREFETCHES: 0 DROPPED PREFETCHES: 0
L2C PREFETCHES SAME FILL-ORIGIN LEVEL: 0 DIFFERENT FILL-ORIGIN LEVEL: 0
L2C AVERAGE MISS LATENCY: 54.052 cycles
L2C RQ	ACCESS:    7425870	FORWARD:          0	MERGED:          0	TO_CACHE:    7425818
L2C WQ	ACCESS:    1234338	FORWARD:         61	MERGED:          0	TO_CACHE:    1234338
L2C PQ	ACCESS:     240783	FORWARD:          0	MERGED:          0	TO_CACHE:     240774

L2C Instructions Evicting Data 579664
L2C Translations Evicting Data 58545
L2C Data Evicting Data 606501
L2C Instructions Evicting Instructions 653946
L2C Translations Evicting Instructions 48231
L2C Data Evicting Instructions 539109
L2C Instructions Evicting Translations 48382
L2C Translations Evicting Translations 5167
L2C Data Evicting Translations 55250
L2C Dense regions hint from L2: 0
PSCL5 TOTAL     ACCESS:     269570  HIT:     269570  MISS:          0  HIT %:        100  MISS %:          0   MPKI: 0
PSCL5 LOAD TRANSLATION ACCESS:     102663  HIT:     102663  MISS:          0  HIT %:        100  MISS %:          0   MPKI: 0
PSCL5 TRANSLATION FROM L1D PREFETCHER ACCESS:     166907  HIT:     166907  MISS:          0  HIT %:        100  MISS %:          0   MPKI: 0
PSCL5 PREFETCH  REQUESTED:          0  ISSUED:          0  USEFUL:          0  USELESS:          0
PSCL5 USEFUL LOAD PREFETCHES:          0 PREFETCH ISSUED TO LOWER LEVEL:          0  ACCURACY: -nan
PSCL5 TIMELY PREFETCHES:          0 LATE PREFETCHES: 0 DROPPED PREFETCHES: 0
PSCL5 PREFETCHES SAME FILL-ORIGIN LEVEL: 0 DIFFERENT FILL-ORIGIN LEVEL: 0

PSCL4 TOTAL     ACCESS:     261398  HIT:     261083  MISS:        315  HIT %:    99.8795  MISS %:   0.120506   MPKI: 0.001575
PSCL4 LOAD TRANSLATION ACCESS:     102199  HIT:     101884  MISS:        315  HIT %:    99.6918  MISS %:   0.308222   MPKI: 0.001575
PSCL4 TRANSLATION FROM L1D PREFETCHER ACCESS:     159199  HIT:     159199  MISS:          0  HIT %:        100  MISS %:          0   MPKI: 0
PSCL4 PREFETCH  REQUESTED:          0  ISSUED:          0  USEFUL:          0  USELESS:          0
PSCL4 USEFUL LOAD PREFETCHES:          0 PREFETCH ISSUED TO LOWER LEVEL:          0  ACCURACY: -nan
PSCL4 TIMELY PREFETCHES:          0 LATE PREFETCHES: 0 DROPPED PREFETCHES: 0
PSCL4 PREFETCHES SAME FILL-ORIGIN LEVEL: 0 DIFFERENT FILL-ORIGIN LEVEL: 0

PSCL3 TOTAL     ACCESS:     186472  HIT:     168673  MISS:      17799  HIT %:    90.4549  MISS %:    9.54513   MPKI: 0.088995
PSCL3 LOAD TRANSLATION ACCESS:      96502  HIT:      78703  MISS:      17799  HIT %:    81.5558  MISS %:    18.4442   MPKI: 0.088995
PSCL3 TRANSLATION FROM L1D PREFETCHER ACCESS:      89970  HIT:      89970  MISS:          0  HIT %:        100  MISS %:          0   MPKI: 0
PSCL3 PREFETCH  REQUESTED:          0  ISSUED:          0  USEFUL:          0  USELESS:          0
PSCL3 USEFUL LOAD PREFETCHES:          0 PREFETCH ISSUED TO LOWER LEVEL:          0  ACCURACY: -nan
PSCL3 TIMELY PREFETCHES:          0 LATE PREFETCHES: 0 DROPPED PREFETCHES: 0
PSCL3 PREFETCHES SAME FILL-ORIGIN LEVEL: 0 DIFFERENT FILL-ORIGIN LEVEL: 0

PSCL2 TOTAL     ACCESS:     134412  HIT:      90215  MISS:      44197  HIT %:    67.1183  MISS %:    32.8817   MPKI: 0.220985
PSCL2 LOAD TRANSLATION ACCESS:     105301  HIT:      61104  MISS:      44197  HIT %:    58.0279  MISS %:    41.9721   MPKI: 0.220985
PSCL2 TRANSLATION FROM L1D PREFETCHER ACCESS:      29111  HIT:      29111  MISS:          0  HIT %:        100  MISS %:          0   MPKI: 0
PSCL2 PREFETCH  REQUESTED:          0  ISSUED:          0  USEFUL:          0  USELESS:          0
PSCL2 USEFUL LOAD PREFETCHES:          0 PREFETCH ISSUED TO LOWER LEVEL:          0  ACCURACY: -nan
PSCL2 TIMELY PREFETCHES:          0 LATE PREFETCHES: 0 DROPPED PREFETCHES: 0
PSCL2 PREFETCHES SAME FILL-ORIGIN LEVEL: 0 DIFFERENT FILL-ORIGIN LEVEL: 0

LLC TOTAL     ACCESS:    3238724  HIT:    2892309  MISS:     346415  HIT %:     89.304  MISS %:     10.696   MPKI: 1.73207
LLC LOAD      ACCESS:    1996789  HIT:    1816532  MISS:     180257  HIT %:    90.9727  MISS %:    9.02734   MPKI: 0.901285
LLC RFO       ACCESS:     387831  HIT:     254136  MISS:     133695  HIT %:    65.5275  MISS %:    34.4725   MPKI: 0.668475
LLC PREFETCH  ACCESS:      98228  HIT:      80570  MISS:      17658  HIT %:    82.0235  MISS %:    17.9765   MPKI: 0.08829
AGUS PREFETCH L1 MISS: 0
LLC WRITEBACK ACCESS:     643933  HIT:     641799  MISS:       2134  HIT %:    99.6686  MISS %:   0.331401   MPKI: 0.01067
LLC LOAD TRANSLATION ACCESS:      80626  HIT:      71355  MISS:       9271  HIT %:    88.5012  MISS %:    11.4988   MPKI: 0.046355
LLC TRANSLATION FROM L1D PREFETCHER ACCESS:      31317  HIT:      27917  MISS:       3400  HIT %:    89.1433  MISS %:    10.8567   MPKI: 0.017
LLC PREFETCH  REQUESTED:          0  ISSUED:          0  USEFUL:       2671  USELESS:      17641
LLC USEFUL LOAD PREFETCHES:       2671 PREFETCH ISSUED TO LOWER LEVEL:      17658  ACCURACY: 15.1263
LLC TIMELY PREFETCHES:       2671 LATE PREFETCHES: 0 DROPPED PREFETCHES: 0
LLC PREFETCHES SAME FILL-ORIGIN LEVEL: 0 DIFFERENT FILL-ORIGIN LEVEL: 0
LLC AVERAGE MISS LATENCY: 193.608 cycles
LLC RQ	ACCESS:    2496567	FORWARD:          0	MERGED:          0	TO_CACHE:    2496563
LLC WQ	ACCESS:     643933	FORWARD:          4	MERGED:          0	TO_CACHE:     643933
LLC PQ	ACCESS:      98228	FORWARD:          0	MERGED:          0	TO_CACHE:      98228

LLC Dense regions hint to LLC: 0

RAW hits: 2084270
Loads Generated: 44023727
Loads sent to L1D: 41939455
Stores Generated: 20245026
Stores sent to L1D: 20245042
Major fault: 0 Minor fault: 5392
Allocated PAGES: 5392
Completed 

DRAM Statistics
 CHANNEL 0
 RQ ROW_BUFFER_HIT:      74639  ROW_BUFFER_MISS:     269636
 DBUS_CONGESTED:        153
 WQ ROW_BUFFER_HIT:      32165  ROW_BUFFER_MISS:     194705  FULL:          0

 AVG_CONGESTED_CYCLE: 4
 All warmup complete: 2
Channel 0 Bank busy for read cycles: 0
Channel 0 Bank busy for write cycles: 0
Channel 0
Rank 0
0banks busy for read cycles: 406640446
0banks busy for write cycles: 102166
1banks busy for read cycles: 24319289
1banks busy for write cycles: 14594404
2banks busy for read cycles: 4095812
2banks busy for write cycles: 3723537
3banks busy for read cycles: 978545
3banks busy for write cycles: 1411269
4banks busy for read cycles: 255544
4banks busy for write cycles: 586258
5banks busy for read cycles: 119992
5banks busy for write cycles: 262918
6banks busy for read cycles: 119113
6banks busy for write cycles: 147739
7banks busy for read cycles: 176455
7banks busy for write cycles: 155288
8banks busy for read cycles: 664390
8banks busy for write cycles: 1105061

CPU 0 Branch Prediction Accuracy: 99.5917% MPKI: 0.749205 Average ROB Occupancy at Mispredict: 30.0211
Branch types
NOT_BRANCH: 163297289 81.6486%
BRANCH_DIRECT_JUMP: 3125250 1.56262%
BRANCH_INDIRECT: 11716382 5.85819%
BRANCH_CONDITIONAL: 15528542 7.76427%
BRANCH_DIRECT_CALL: 2710252 1.35513%
BRANCH_INDIRECT_CALL: 455858 0.227929%
BRANCH_RETURN: 3166086 1.58304%
BRANCH_OTHER: 0 0%

DRAM PAGES: 1048576
Allocated PAGES: 5392
