
*** ChampSim Multicore Out-of-Order Simulator ***

Warmup Instructions: 50000000
Simulation Instructions: 200000000
Number of CPUs: 1
LLC sets: 2048
LLC ways: 16
Off-chip DRAM Size: 4096 MB Channels: 1 Width: 64-bit Data Rate: 6400 MT/s
CPU 0 runs traces/spec2k17/srv_31.champsimtrace.xz
.xz
BTB has LRU replacement policy
ITLB has LRU replacement policy
DTLB has LRU replacement policy
STLB has LRU replacement policy
L1I has LRU replacement policy
L1D has LRU replacement policy
Initialize SRRIP state for L2C
Initialize DRRIP state for LLC
Heartbeat CPU 0 instructions: 10000000 cycles: 2807921 heartbeat IPC: 3.56135 cumulative IPC: 3.56135 (Simulation time: 0 hr 0 min 27 sec) 
Heartbeat CPU 0 instructions: 20000002 cycles: 5614918 heartbeat IPC: 3.56253 cumulative IPC: 3.56194 (Simulation time: 0 hr 0 min 54 sec) 
Heartbeat CPU 0 instructions: 30000002 cycles: 8423915 heartbeat IPC: 3.55999 cumulative IPC: 3.56129 (Simulation time: 0 hr 1 min 21 sec) 
*** Reached end of trace for Core: 0 Repeating trace: traces/spec2k17/srv_31.champsimtrace.xz
Heartbeat CPU 0 instructions: 40000000 cycles: 11231013 heartbeat IPC: 3.5624 cumulative IPC: 3.56157 (Simulation time: 0 hr 1 min 48 sec) 
Heartbeat CPU 0 instructions: 50000003 cycles: 14038135 heartbeat IPC: 3.56237 cumulative IPC: 3.56173 (Simulation time: 0 hr 2 min 17 sec) 

Warmup complete CPU 0 instructions: 50000003 cycles: 14038135 (Simulation time: 0 hr 2 min 17 sec) 

Heartbeat CPU 0 instructions: 60000001 cycles: 28054613 heartbeat IPC: 0.713446 cumulative IPC: 0.713446 (Simulation time: 0 hr 2 min 53 sec) 
*** Reached end of trace for Core: 0 Repeating trace: traces/spec2k17/srv_31.champsimtrace.xz
Heartbeat CPU 0 instructions: 70000000 cycles: 42061939 heartbeat IPC: 0.713912 cumulative IPC: 0.713679 (Simulation time: 0 hr 3 min 29 sec) 
Heartbeat CPU 0 instructions: 80000000 cycles: 55836813 heartbeat IPC: 0.725959 cumulative IPC: 0.717726 (Simulation time: 0 hr 4 min 4 sec) 
Heartbeat CPU 0 instructions: 90000001 cycles: 69748707 heartbeat IPC: 0.718809 cumulative IPC: 0.717997 (Simulation time: 0 hr 4 min 38 sec) 
*** Reached end of trace for Core: 0 Repeating trace: traces/spec2k17/srv_31.champsimtrace.xz
Heartbeat CPU 0 instructions: 100000000 cycles: 83579601 heartbeat IPC: 0.723019 cumulative IPC: 0.718995 (Simulation time: 0 hr 5 min 13 sec) 
Heartbeat CPU 0 instructions: 110000000 cycles: 97304722 heartbeat IPC: 0.728591 cumulative IPC: 0.720577 (Simulation time: 0 hr 5 min 48 sec) 
Heartbeat CPU 0 instructions: 120000001 cycles: 111406889 heartbeat IPC: 0.709111 cumulative IPC: 0.718916 (Simulation time: 0 hr 6 min 23 sec) 
*** Reached end of trace for Core: 0 Repeating trace: traces/spec2k17/srv_31.champsimtrace.xz
Heartbeat CPU 0 instructions: 130000000 cycles: 125243468 heartbeat IPC: 0.722722 cumulative IPC: 0.71939 (Simulation time: 0 hr 6 min 58 sec) 
Heartbeat CPU 0 instructions: 140000000 cycles: 138943724 heartbeat IPC: 0.729913 cumulative IPC: 0.720544 (Simulation time: 0 hr 7 min 32 sec) 
Heartbeat CPU 0 instructions: 150000002 cycles: 153044538 heartbeat IPC: 0.709179 cumulative IPC: 0.719391 (Simulation time: 0 hr 8 min 7 sec) 
*** Reached end of trace for Core: 0 Repeating trace: traces/spec2k17/srv_31.champsimtrace.xz
Heartbeat CPU 0 instructions: 160000002 cycles: 166901665 heartbeat IPC: 0.72165 cumulative IPC: 0.719596 (Simulation time: 0 hr 8 min 41 sec) 
Heartbeat CPU 0 instructions: 170000000 cycles: 180571460 heartbeat IPC: 0.73154 cumulative IPC: 0.720576 (Simulation time: 0 hr 9 min 16 sec) 
Heartbeat CPU 0 instructions: 180000002 cycles: 194461681 heartbeat IPC: 0.719931 cumulative IPC: 0.720527 (Simulation time: 0 hr 9 min 51 sec) 
Heartbeat CPU 0 instructions: 190000001 cycles: 208292714 heartbeat IPC: 0.723012 cumulative IPC: 0.720704 (Simulation time: 0 hr 10 min 26 sec) 
*** Reached end of trace for Core: 0 Repeating trace: traces/spec2k17/srv_31.champsimtrace.xz
Heartbeat CPU 0 instructions: 200000003 cycles: 222207433 heartbeat IPC: 0.718664 cumulative IPC: 0.720567 (Simulation time: 0 hr 11 min 0 sec) 
Heartbeat CPU 0 instructions: 210000003 cycles: 236036530 heartbeat IPC: 0.723113 cumulative IPC: 0.720726 (Simulation time: 0 hr 11 min 35 sec) 
Heartbeat CPU 0 instructions: 220000000 cycles: 249876501 heartbeat IPC: 0.722545 cumulative IPC: 0.720833 (Simulation time: 0 hr 12 min 10 sec) 
*** Reached end of trace for Core: 0 Repeating trace: traces/spec2k17/srv_31.champsimtrace.xz
Heartbeat CPU 0 instructions: 230000003 cycles: 263821852 heartbeat IPC: 0.717085 cumulative IPC: 0.720623 (Simulation time: 0 hr 12 min 45 sec) 
Heartbeat CPU 0 instructions: 240000001 cycles: 277580487 heartbeat IPC: 0.726816 cumulative IPC: 0.720947 (Simulation time: 0 hr 13 min 19 sec) 
Heartbeat CPU 0 instructions: 250000003 cycles: 291453585 heartbeat IPC: 0.72082 cumulative IPC: 0.72094 (Simulation time: 0 hr 13 min 54 sec) 
Finished CPU 0 instructions: 200000000 cycles: 277415450 cumulative IPC: 0.72094 (Simulation time: 0 hr 13 min 54 sec) 

ChampSim completed all CPUs

Region of Interest Statistics

CPU 0 cumulative IPC: 0.72094 instructions: 200000000 cycles: 277415450
ITLB TOTAL     ACCESS:   32447586  HIT:   32340882  MISS:     106704  HIT %:    99.6711  MISS %:    0.32885   MPKI: 0.53352
ITLB LOAD TRANSLATION ACCESS:   32447586  HIT:   32340882  MISS:     106704  HIT %:    99.6711  MISS %:    0.32885   MPKI: 0.53352
ITLB PREFETCH  REQUESTED:          0  ISSUED:          0  USEFUL:          0  USELESS:          0
ITLB USEFUL LOAD PREFETCHES:          0 PREFETCH ISSUED TO LOWER LEVEL:          0  ACCURACY: -nan
ITLB TIMELY PREFETCHES:          0 LATE PREFETCHES: 0 DROPPED PREFETCHES: 0
ITLB PREFETCHES SAME FILL-ORIGIN LEVEL: 0 DIFFERENT FILL-ORIGIN LEVEL: 0
ITLB AVERAGE MISS LATENCY: 10.6065 cycles
ITLB RQ	ACCESS:   38246208	FORWARD:          0	MERGED:    5763786	TO_CACHE:   32482422

DTLB TOTAL     ACCESS:   40788327  HIT:   38979709  MISS:    1808618  HIT %:    95.5658  MISS %:    4.43416   MPKI: 9.04309
DTLB LOAD TRANSLATION ACCESS:   40788327  HIT:   38979709  MISS:    1808618  HIT %:    95.5658  MISS %:    4.43416   MPKI: 9.04309
DTLB PREFETCH  REQUESTED:          0  ISSUED:          0  USEFUL:          0  USELESS:          0
DTLB USEFUL LOAD PREFETCHES:          0 PREFETCH ISSUED TO LOWER LEVEL:          0  ACCURACY: -nan
DTLB TIMELY PREFETCHES:          0 LATE PREFETCHES: 0 DROPPED PREFETCHES: 0
DTLB PREFETCHES SAME FILL-ORIGIN LEVEL: 0 DIFFERENT FILL-ORIGIN LEVEL: 0
DTLB AVERAGE MISS LATENCY: 9.68895 cycles
DTLB RQ	ACCESS:   54743681	FORWARD:          0	MERGED:   13780965	TO_CACHE:   40962716

STLB TOTAL     ACCESS:   20040008  HIT:   19953531  MISS:      86477  HIT %:    99.5685  MISS %:   0.431522   MPKI: 0.432385
STLB LOAD TRANSLATION ACCESS:    1915322  HIT:    1829181  MISS:      86141  HIT %:    95.5025  MISS %:    4.49747   MPKI: 0.430705
STLB TRANSLATION FROM L1D PREFETCHER ACCESS:   18124686  HIT:   18124350  MISS:        336  HIT %:    99.9981  MISS %: 0.00185383   MPKI: 0.00168
STLB PREFETCH  REQUESTED:          0  ISSUED:          0  USEFUL:        261  USELESS:         77
STLB USEFUL LOAD PREFETCHES:        261 PREFETCH ISSUED TO LOWER LEVEL:          0  ACCURACY: inf
STLB TIMELY PREFETCHES:        261 LATE PREFETCHES: 31 DROPPED PREFETCHES: 248102
STLB PREFETCHES SAME FILL-ORIGIN LEVEL: 0 DIFFERENT FILL-ORIGIN LEVEL: 0
STLB AVERAGE MISS LATENCY: 35.6033 cycles
STLB RQ	ACCESS:   23849639	FORWARD:          0	MERGED:    3556360	TO_CACHE:   20293279

STLB Hit, L1D data hit: 0
STLB Hit, L2C data hit: 0
STLB Hit, LLC data hit: 0
STLB Hit, LLC data miss: 0
STLB STLB hints to L2: 0
L1D TOTAL     ACCESS:   75698582  HIT:   75114837  MISS:     583745  HIT %:    99.2289  MISS %:   0.771144   MPKI: 2.91872
L1D LOAD      ACCESS:   30703408  HIT:   30326578  MISS:     376830  HIT %:    98.7727  MISS %:    1.22732   MPKI: 1.88415
L1D RFO       ACCESS:   23439097  HIT:   23319880  MISS:     119217  HIT %:    99.4914  MISS %:   0.508625   MPKI: 0.596085
L1D PREFETCH  ACCESS:   21556077  HIT:   21468379  MISS:      87698  HIT %:    99.5932  MISS %:   0.406837   MPKI: 0.43849
AGUS PREFETCH L1 MISS: 0
L1D PREFETCH  REQUESTED:   46870339  ISSUED:   46866710  USEFUL:       6659  USELESS:      81018
L1D USEFUL LOAD PREFETCHES:       6659 PREFETCH ISSUED TO LOWER LEVEL:     111514  ACCURACY: 5.97145
L1D TIMELY PREFETCHES:       6659 LATE PREFETCHES: 23803 DROPPED PREFETCHES: 272801
L1D PREFETCHES SAME FILL-ORIGIN LEVEL: 111514 DIFFERENT FILL-ORIGIN LEVEL: 0
L1D AVERAGE MISS LATENCY: 6.52593e+06 cycles
L1D RQ	ACCESS:   49488310	FORWARD:          0	MERGED:   18535595	TO_CACHE:   30835415
L1D WQ	ACCESS:   24164282	FORWARD:     207774	MERGED:     256016	TO_CACHE:   23908266
L1D PQ	ACCESS:   24932393	FORWARD:          0	MERGED:    2907602	TO_CACHE:   21934317

L1D UNIQUE REGIONS ACCESSED: 0
L1D REGIONS CONFLICTS: 0
L1D Cross Page Prefetch Requests: 19664403
L1D Same Page Prefetch Requests: 8778572
L1D ROI Sum of L1D PQ occupancy: 305944799
L1D PREFETCHES PUSHED FROM L2C: 0
L1I TOTAL     ACCESS:   38053673  HIT:   37415302  MISS:     638371  HIT %:    98.3224  MISS %:    1.67755   MPKI: 3.19185
L1I LOAD      ACCESS:   38053673  HIT:   37415302  MISS:     638371  HIT %:    98.3224  MISS %:    1.67755   MPKI: 3.19185
L1I PREFETCH  REQUESTED:          0  ISSUED:          0  USEFUL:          0  USELESS:          0
L1I USEFUL LOAD PREFETCHES:          0 PREFETCH ISSUED TO LOWER LEVEL:          0  ACCURACY: -nan
L1I TIMELY PREFETCHES:          0 LATE PREFETCHES: 0 DROPPED PREFETCHES: 0
L1I PREFETCHES SAME FILL-ORIGIN LEVEL: 0 DIFFERENT FILL-ORIGIN LEVEL: 0
L1I AVERAGE MISS LATENCY: 16.8392 cycles
L1I RQ	ACCESS:   60442763	FORWARD:          0	MERGED:   22196555	TO_CACHE:   38246208

BTB TOTAL     ACCESS:   29625893  HIT:   27968825  MISS:    1657068  HIT %:    94.4067  MISS %:    5.59331   MPKI: 8.28534
BTB BRANCH_DIRECT_JUMP	ACCESS:    2289443  HIT:    2287950  MISS:       1493
BTB BRANCH_INDIRECT	ACCESS:   12552908  HIT:   12006835  MISS:     546073
BTB BRANCH_CONDITIONAL	ACCESS:    7216617  HIT:    7214548  MISS:       2069
BTB BRANCH_DIRECT_CALL	ACCESS:    3333261  HIT:    3329718  MISS:       3543
BTB BRANCH_INDIRECT_CALL	ACCESS:     450198  HIT:     257229  MISS:     192969
BTB BRANCH_RETURN	ACCESS:    3783466  HIT:    2872545  MISS:     910921
BTB BRANCH_OTHER ACCESS:          0  HIT:          0  MISS:          0

L2C TOTAL     ACCESS:    1857691  HIT:    1355807  MISS:     501884  HIT %:    72.9835  MISS %:    27.0165   MPKI: 2.50942
L2C LOAD      ACCESS:     991347  HIT:     660405  MISS:     330942  HIT %:    66.6169  MISS %:    33.3831   MPKI: 1.65471
L2C DATA LOAD MPKI: 1.44385
L2C INSTRUCTION LOAD MPKI: 0.21086
L2C RFO       ACCESS:     119057  HIT:       8405  MISS:     110652  HIT %:    7.05964  MISS %:    92.9404   MPKI: 0.55326
L2C PREFETCH  ACCESS:     111512  HIT:      84384  MISS:      27128  HIT %:    75.6726  MISS %:    24.3274   MPKI: 0.13564
AGUS PREFETCH L1 MISS: 0
L2C DATA PREFETCH MPKI: 0.13564
L2C INSTRUCTION PREFETCH MPKI: 0
L2C WRITEBACK ACCESS:     165293  HIT:     159238  MISS:       6055  HIT %:    96.3368  MISS %:    3.66319   MPKI: 0.030275
L2C LOAD TRANSLATION ACCESS:     122697  HIT:      98043  MISS:      24654  HIT %:    79.9066  MISS %:    20.0934   MPKI: 0.12327
L2C TRANSLATION FROM L1D PREFETCHER ACCESS:     347785  HIT:     345332  MISS:       2453  HIT %:    99.2947  MISS %:   0.705321   MPKI: 0.012265
L2C PREFETCH  REQUESTED:          0  ISSUED:          0  USEFUL:       2962  USELESS:      26743
L2C USEFUL LOAD PREFETCHES:       2962 PREFETCH ISSUED TO LOWER LEVEL:      27128  ACCURACY: 10.9186
L2C TIMELY PREFETCHES:       2962 LATE PREFETCHES: 0 DROPPED PREFETCHES: 0
L2C PREFETCHES SAME FILL-ORIGIN LEVEL: 0 DIFFERENT FILL-ORIGIN LEVEL: 0
L2C AVERAGE MISS LATENCY: 111.338 cycles
L2C RQ	ACCESS:    1581084	FORWARD:          0	MERGED:          0	TO_CACHE:    1580886
L2C WQ	ACCESS:     165293	FORWARD:        200	MERGED:          0	TO_CACHE:     165293
L2C PQ	ACCESS:     111514	FORWARD:          0	MERGED:          0	TO_CACHE:     111512

L2C Instructions Evicting Data 37351
L2C Translations Evicting Data 23103
L2C Data Evicting Data 366783
L2C Instructions Evicting Instructions 2757
L2C Translations Evicting Instructions 2393
L2C Data Evicting Instructions 36812
L2C Instructions Evicting Translations 2064
L2C Translations Evicting Translations 1611
L2C Data Evicting Translations 22955
L2C Dense regions hint from L2: 0
PSCL5 TOTAL     ACCESS:     333259  HIT:     333259  MISS:          0  HIT %:        100  MISS %:          0   MPKI: 0
PSCL5 LOAD TRANSLATION ACCESS:      86110  HIT:      86110  MISS:          0  HIT %:        100  MISS %:          0   MPKI: 0
PSCL5 TRANSLATION FROM L1D PREFETCHER ACCESS:     247149  HIT:     247149  MISS:          0  HIT %:        100  MISS %:          0   MPKI: 0
PSCL5 PREFETCH  REQUESTED:          0  ISSUED:          0  USEFUL:          0  USELESS:          0
PSCL5 USEFUL LOAD PREFETCHES:          0 PREFETCH ISSUED TO LOWER LEVEL:          0  ACCURACY: -nan
PSCL5 TIMELY PREFETCHES:          0 LATE PREFETCHES: 0 DROPPED PREFETCHES: 0
PSCL5 PREFETCHES SAME FILL-ORIGIN LEVEL: 0 DIFFERENT FILL-ORIGIN LEVEL: 0

PSCL4 TOTAL     ACCESS:     291819  HIT:     291673  MISS:        146  HIT %:      99.95  MISS %:   0.050031   MPKI: 0.00073
PSCL4 LOAD TRANSLATION ACCESS:      84648  HIT:      84502  MISS:        146  HIT %:    99.8275  MISS %:   0.172479   MPKI: 0.00073
PSCL4 TRANSLATION FROM L1D PREFETCHER ACCESS:     207171  HIT:     207171  MISS:          0  HIT %:        100  MISS %:          0   MPKI: 0
PSCL4 PREFETCH  REQUESTED:          0  ISSUED:          0  USEFUL:          0  USELESS:          0
PSCL4 USEFUL LOAD PREFETCHES:          0 PREFETCH ISSUED TO LOWER LEVEL:          0  ACCURACY: -nan
PSCL4 TIMELY PREFETCHES:          0 LATE PREFETCHES: 0 DROPPED PREFETCHES: 0
PSCL4 PREFETCHES SAME FILL-ORIGIN LEVEL: 0 DIFFERENT FILL-ORIGIN LEVEL: 0

PSCL3 TOTAL     ACCESS:     186784  HIT:     186244  MISS:        540  HIT %:    99.7109  MISS %:   0.289104   MPKI: 0.0027
PSCL3 LOAD TRANSLATION ACCESS:      85825  HIT:      85285  MISS:        540  HIT %:    99.3708  MISS %:   0.629187   MPKI: 0.0027
PSCL3 TRANSLATION FROM L1D PREFETCHER ACCESS:     100959  HIT:     100959  MISS:          0  HIT %:        100  MISS %:          0   MPKI: 0
PSCL3 PREFETCH  REQUESTED:          0  ISSUED:          0  USEFUL:          0  USELESS:          0
PSCL3 USEFUL LOAD PREFETCHES:          0 PREFETCH ISSUED TO LOWER LEVEL:          0  ACCURACY: -nan
PSCL3 TIMELY PREFETCHES:          0 LATE PREFETCHES: 0 DROPPED PREFETCHES: 0
PSCL3 PREFETCHES SAME FILL-ORIGIN LEVEL: 0 DIFFERENT FILL-ORIGIN LEVEL: 0

PSCL2 TOTAL     ACCESS:      96371  HIT:      60388  MISS:      35983  HIT %:     62.662  MISS %:     37.338   MPKI: 0.179915
PSCL2 LOAD TRANSLATION ACCESS:      86191  HIT:      50208  MISS:      35983  HIT %:     58.252  MISS %:     41.748   MPKI: 0.179915
PSCL2 TRANSLATION FROM L1D PREFETCHER ACCESS:      10180  HIT:      10180  MISS:          0  HIT %:        100  MISS %:          0   MPKI: 0
PSCL2 PREFETCH  REQUESTED:          0  ISSUED:          0  USEFUL:          0  USELESS:          0
PSCL2 USEFUL LOAD PREFETCHES:          0 PREFETCH ISSUED TO LOWER LEVEL:          0  ACCURACY: -nan
PSCL2 TIMELY PREFETCHES:          0 LATE PREFETCHES: 0 DROPPED PREFETCHES: 0
PSCL2 PREFETCHES SAME FILL-ORIGIN LEVEL: 0 DIFFERENT FILL-ORIGIN LEVEL: 0

LLC TOTAL     ACCESS:     643673  HIT:     381987  MISS:     261686  HIT %:    59.3449  MISS %:    40.6551   MPKI: 1.30843
LLC LOAD      ACCESS:     330940  HIT:     128956  MISS:     201984  HIT %:    38.9666  MISS %:    61.0334   MPKI: 1.00992
LLC RFO       ACCESS:     110652  HIT:      69630  MISS:      41022  HIT %:     62.927  MISS %:     37.073   MPKI: 0.20511
LLC PREFETCH  ACCESS:      27122  HIT:      11793  MISS:      15329  HIT %:    43.4813  MISS %:    56.5187   MPKI: 0.076645
AGUS PREFETCH L1 MISS: 0
LLC WRITEBACK ACCESS:     147852  HIT:     146593  MISS:       1259  HIT %:    99.1485  MISS %:   0.851527   MPKI: 0.006295
LLC LOAD TRANSLATION ACCESS:      24654  HIT:      23132  MISS:       1522  HIT %:    93.8266  MISS %:    6.17344   MPKI: 0.00761
LLC TRANSLATION FROM L1D PREFETCHER ACCESS:       2453  HIT:       1883  MISS:        570  HIT %:    76.7631  MISS %:    23.2369   MPKI: 0.00285
LLC PREFETCH  REQUESTED:          0  ISSUED:          0  USEFUL:        939  USELESS:      15729
LLC USEFUL LOAD PREFETCHES:        939 PREFETCH ISSUED TO LOWER LEVEL:      15329  ACCURACY: 6.12564
LLC TIMELY PREFETCHES:        939 LATE PREFETCHES: 0 DROPPED PREFETCHES: 0
LLC PREFETCHES SAME FILL-ORIGIN LEVEL: 0 DIFFERENT FILL-ORIGIN LEVEL: 0
LLC AVERAGE MISS LATENCY: 156.688 cycles
LLC RQ	ACCESS:     468701	FORWARD:          0	MERGED:          0	TO_CACHE:     468699
LLC WQ	ACCESS:     147852	FORWARD:          8	MERGED:          0	TO_CACHE:     147852
LLC PQ	ACCESS:      27128	FORWARD:          0	MERGED:          0	TO_CACHE:      27122

LLC Dense regions hint to LLC: 0

RAW hits: 2383062
Loads Generated: 51871374
Loads sent to L1D: 49488310
Stores Generated: 24164278
Stores sent to L1D: 24164282
Major fault: 0 Minor fault: 6162
Allocated PAGES: 6162
Completed 

DRAM Statistics
 CHANNEL 0
 RQ ROW_BUFFER_HIT:      54958  ROW_BUFFER_MISS:     205436
 DBUS_CONGESTED:        210
 WQ ROW_BUFFER_HIT:      10265  ROW_BUFFER_MISS:      42947  FULL:          0

 AVG_CONGESTED_CYCLE: 5
 All warmup complete: 2
Channel 0 Bank busy for read cycles: 0
Channel 0 Bank busy for write cycles: 0
Channel 0
Rank 0
0banks busy for read cycles: 245573671
0banks busy for write cycles: 29145
1banks busy for read cycles: 22110823
1banks busy for write cycles: 5080201
2banks busy for read cycles: 1482957
2banks busy for write cycles: 653532
3banks busy for read cycles: 502580
3banks busy for write cycles: 171752
4banks busy for read cycles: 333997
4banks busy for write cycles: 115192
5banks busy for read cycles: 252426
5banks busy for write cycles: 96861
6banks busy for read cycles: 234898
6banks busy for write cycles: 99902
7banks busy for read cycles: 207228
7banks busy for write cycles: 108605
8banks busy for read cycles: 190859
8banks busy for write cycles: 170822

CPU 0 Branch Prediction Accuracy: 99.7859% MPKI: 0.39104 Average ROB Occupancy at Mispredict: 19.733
Branch types
NOT_BRANCH: 163463153 81.7316%
BRANCH_DIRECT_JUMP: 2289443 1.14472%
BRANCH_INDIRECT: 12552908 6.27645%
BRANCH_CONDITIONAL: 14127333 7.06367%
BRANCH_DIRECT_CALL: 3333261 1.66663%
BRANCH_INDIRECT_CALL: 450198 0.225099%
BRANCH_RETURN: 3783466 1.89173%
BRANCH_OTHER: 0 0%

DRAM PAGES: 1048576
Allocated PAGES: 6162
