
*** ChampSim Multicore Out-of-Order Simulator ***

Warmup Instructions: 50000000
Simulation Instructions: 200000000
Number of CPUs: 1
LLC sets: 2048
LLC ways: 16
Off-chip DRAM Size: 4096 MB Channels: 1 Width: 64-bit Data Rate: 6400 MT/s
CPU 0 runs traces/spec2k17/srv_5.champsimtrace.xz
.xz
BTB has LRU replacement policy
ITLB has LRU replacement policy
DTLB has LRU replacement policy
STLB has LRU replacement policy
L1I has LRU replacement policy
L1D has LRU replacement policy
Initialize SRRIP state for L2C
Initialize DRRIP state for LLC
Heartbeat CPU 0 instructions: 10000002 cycles: 2765323 heartbeat IPC: 3.61621 cumulative IPC: 3.61621 (Simulation time: 0 hr 0 min 23 sec) 
Heartbeat CPU 0 instructions: 20000003 cycles: 5521003 heartbeat IPC: 3.62887 cumulative IPC: 3.62253 (Simulation time: 0 hr 0 min 47 sec) 
Heartbeat CPU 0 instructions: 30000002 cycles: 8280396 heartbeat IPC: 3.62399 cumulative IPC: 3.62302 (Simulation time: 0 hr 1 min 10 sec) 
*** Reached end of trace for Core: 0 Repeating trace: traces/spec2k17/srv_5.champsimtrace.xz
Heartbeat CPU 0 instructions: 40000002 cycles: 11040894 heartbeat IPC: 3.62253 cumulative IPC: 3.6229 (Simulation time: 0 hr 1 min 34 sec) 
Heartbeat CPU 0 instructions: 50000002 cycles: 13797380 heartbeat IPC: 3.62781 cumulative IPC: 3.62388 (Simulation time: 0 hr 1 min 57 sec) 

Warmup complete CPU 0 instructions: 50000002 cycles: 13797380 (Simulation time: 0 hr 1 min 57 sec) 

Heartbeat CPU 0 instructions: 60000001 cycles: 35742007 heartbeat IPC: 0.455692 cumulative IPC: 0.455692 (Simulation time: 0 hr 2 min 33 sec) 
*** Reached end of trace for Core: 0 Repeating trace: traces/spec2k17/srv_5.champsimtrace.xz
Heartbeat CPU 0 instructions: 70000003 cycles: 57692691 heartbeat IPC: 0.455567 cumulative IPC: 0.45563 (Simulation time: 0 hr 3 min 9 sec) 
Heartbeat CPU 0 instructions: 80000001 cycles: 78999798 heartbeat IPC: 0.469327 cumulative IPC: 0.460106 (Simulation time: 0 hr 3 min 44 sec) 
Heartbeat CPU 0 instructions: 90000002 cycles: 101043948 heartbeat IPC: 0.453635 cumulative IPC: 0.458471 (Simulation time: 0 hr 4 min 18 sec) 
*** Reached end of trace for Core: 0 Repeating trace: traces/spec2k17/srv_5.champsimtrace.xz
Heartbeat CPU 0 instructions: 100000001 cycles: 122616488 heartbeat IPC: 0.463552 cumulative IPC: 0.459478 (Simulation time: 0 hr 4 min 51 sec) 
Heartbeat CPU 0 instructions: 110000000 cycles: 144169522 heartbeat IPC: 0.463972 cumulative IPC: 0.460221 (Simulation time: 0 hr 5 min 24 sec) 
Heartbeat CPU 0 instructions: 120000001 cycles: 166055238 heartbeat IPC: 0.456919 cumulative IPC: 0.459746 (Simulation time: 0 hr 5 min 57 sec) 
*** Reached end of trace for Core: 0 Repeating trace: traces/spec2k17/srv_5.champsimtrace.xz
Heartbeat CPU 0 instructions: 130000001 cycles: 187529637 heartbeat IPC: 0.465671 cumulative IPC: 0.460479 (Simulation time: 0 hr 6 min 30 sec) 
Heartbeat CPU 0 instructions: 140000003 cycles: 209038860 heartbeat IPC: 0.464917 cumulative IPC: 0.460968 (Simulation time: 0 hr 7 min 2 sec) 
Heartbeat CPU 0 instructions: 150000000 cycles: 230695299 heartbeat IPC: 0.461756 cumulative IPC: 0.461046 (Simulation time: 0 hr 7 min 35 sec) 
*** Reached end of trace for Core: 0 Repeating trace: traces/spec2k17/srv_5.champsimtrace.xz
Heartbeat CPU 0 instructions: 160000000 cycles: 252089216 heartbeat IPC: 0.467423 cumulative IPC: 0.461619 (Simulation time: 0 hr 8 min 8 sec) 
Heartbeat CPU 0 instructions: 170000002 cycles: 273870039 heartbeat IPC: 0.45912 cumulative IPC: 0.46141 (Simulation time: 0 hr 8 min 41 sec) 
Heartbeat CPU 0 instructions: 180000000 cycles: 295382448 heartbeat IPC: 0.464848 cumulative IPC: 0.461672 (Simulation time: 0 hr 9 min 14 sec) 
*** Reached end of trace for Core: 0 Repeating trace: traces/spec2k17/srv_5.champsimtrace.xz
Heartbeat CPU 0 instructions: 190000000 cycles: 316818367 heartbeat IPC: 0.466507 cumulative IPC: 0.462014 (Simulation time: 0 hr 9 min 47 sec) 
Heartbeat CPU 0 instructions: 200000003 cycles: 338668967 heartbeat IPC: 0.457653 cumulative IPC: 0.461721 (Simulation time: 0 hr 10 min 20 sec) 
Heartbeat CPU 0 instructions: 210000000 cycles: 360016637 heartbeat IPC: 0.468435 cumulative IPC: 0.462135 (Simulation time: 0 hr 10 min 53 sec) 
*** Reached end of trace for Core: 0 Repeating trace: traces/spec2k17/srv_5.champsimtrace.xz
Heartbeat CPU 0 instructions: 220000000 cycles: 381501114 heartbeat IPC: 0.465452 cumulative IPC: 0.462329 (Simulation time: 0 hr 11 min 26 sec) 
Heartbeat CPU 0 instructions: 230000003 cycles: 403402500 heartbeat IPC: 0.456592 cumulative IPC: 0.462006 (Simulation time: 0 hr 11 min 59 sec) 
Heartbeat CPU 0 instructions: 240000002 cycles: 424769156 heartbeat IPC: 0.468019 cumulative IPC: 0.462319 (Simulation time: 0 hr 12 min 33 sec) 
*** Reached end of trace for Core: 0 Repeating trace: traces/spec2k17/srv_5.champsimtrace.xz
Heartbeat CPU 0 instructions: 250000001 cycles: 446241714 heartbeat IPC: 0.465711 cumulative IPC: 0.462487 (Simulation time: 0 hr 13 min 6 sec) 
Finished CPU 0 instructions: 200000001 cycles: 432444335 cumulative IPC: 0.462487 (Simulation time: 0 hr 13 min 6 sec) 

ChampSim completed all CPUs

Region of Interest Statistics

CPU 0 cumulative IPC: 0.462487 instructions: 200000001 cycles: 432444335
ITLB TOTAL     ACCESS:   31216100  HIT:   30408329  MISS:     807771  HIT %:    97.4123  MISS %:    2.58767   MPKI: 4.03885
ITLB LOAD TRANSLATION ACCESS:   31216100  HIT:   30408329  MISS:     807771  HIT %:    97.4123  MISS %:    2.58767   MPKI: 4.03885
ITLB PREFETCH  REQUESTED:          0  ISSUED:          0  USEFUL:          0  USELESS:          0
ITLB USEFUL LOAD PREFETCHES:          0 PREFETCH ISSUED TO LOWER LEVEL:          0  ACCURACY: -nan
ITLB TIMELY PREFETCHES:          0 LATE PREFETCHES: 0 DROPPED PREFETCHES: 0
ITLB PREFETCHES SAME FILL-ORIGIN LEVEL: 0 DIFFERENT FILL-ORIGIN LEVEL: 0
ITLB AVERAGE MISS LATENCY: 13.4698 cycles
ITLB RQ	ACCESS:   38119425	FORWARD:          0	MERGED:    6699313	TO_CACHE:   31420112

DTLB TOTAL     ACCESS:   36995907  HIT:   34383190  MISS:    2612717  HIT %:    92.9378  MISS %:    7.06218   MPKI: 13.0636
DTLB LOAD TRANSLATION ACCESS:   36995907  HIT:   34383190  MISS:    2612717  HIT %:    92.9378  MISS %:    7.06218   MPKI: 13.0636
DTLB PREFETCH  REQUESTED:          0  ISSUED:          0  USEFUL:          0  USELESS:          0
DTLB USEFUL LOAD PREFETCHES:          0 PREFETCH ISSUED TO LOWER LEVEL:          0  ACCURACY: -nan
DTLB TIMELY PREFETCHES:          0 LATE PREFETCHES: 0 DROPPED PREFETCHES: 0
DTLB PREFETCHES SAME FILL-ORIGIN LEVEL: 0 DIFFERENT FILL-ORIGIN LEVEL: 0
DTLB AVERAGE MISS LATENCY: 12.78 cycles
DTLB RQ	ACCESS:   47438530	FORWARD:          0	MERGED:   10296739	TO_CACHE:   37141791

STLB TOTAL     ACCESS:   11614815  HIT:   11290059  MISS:     324756  HIT %:     97.204  MISS %:    2.79605   MPKI: 1.62378
STLB LOAD TRANSLATION ACCESS:    3420488  HIT:    3105101  MISS:     315387  HIT %:    90.7795  MISS %:    9.22053   MPKI: 1.57693
STLB TRANSLATION FROM L1D PREFETCHER ACCESS:    8194327  HIT:    8184958  MISS:       9369  HIT %:    99.8857  MISS %:   0.114335   MPKI: 0.046845
STLB PREFETCH  REQUESTED:          0  ISSUED:          0  USEFUL:       7784  USELESS:       1580
STLB USEFUL LOAD PREFETCHES:       7784 PREFETCH ISSUED TO LOWER LEVEL:          0  ACCURACY: inf
STLB TIMELY PREFETCHES:       7784 LATE PREFETCHES: 1956 DROPPED PREFETCHES: 380621
STLB PREFETCHES SAME FILL-ORIGIN LEVEL: 0 DIFFERENT FILL-ORIGIN LEVEL: 0
STLB AVERAGE MISS LATENCY: 45.5287 cycles
STLB RQ	ACCESS:   13706878	FORWARD:          0	MERGED:    1707609	TO_CACHE:   11999269

STLB Hit, L1D data hit: 0
STLB Hit, L2C data hit: 0
STLB Hit, LLC data hit: 0
STLB Hit, LLC data miss: 0
STLB STLB hints to L2: 0
L1D TOTAL     ACCESS:   56608294  HIT:   54029988  MISS:    2578306  HIT %:    95.4454  MISS %:    4.55464   MPKI: 12.8915
L1D LOAD      ACCESS:   27432985  HIT:   25418747  MISS:    2014238  HIT %:    92.6576  MISS %:    7.34239   MPKI: 10.0712
L1D RFO       ACCESS:   19479769  HIT:   19155579  MISS:     324190  HIT %:    98.3358  MISS %:    1.66424   MPKI: 1.62095
L1D PREFETCH  ACCESS:    9695540  HIT:    9455662  MISS:     239878  HIT %:    97.5259  MISS %:    2.47411   MPKI: 1.19939
AGUS PREFETCH L1 MISS: 0
L1D PREFETCH  REQUESTED:   22166174  ISSUED:   22164073  USEFUL:     146025  USELESS:      93843
L1D USEFUL LOAD PREFETCHES:     146025 PREFETCH ISSUED TO LOWER LEVEL:     307804  ACCURACY: 47.4409
L1D TIMELY PREFETCHES:     146025 LATE PREFETCHES: 67705 DROPPED PREFETCHES: 406891
L1D PREFETCHES SAME FILL-ORIGIN LEVEL: 307804 DIFFERENT FILL-ORIGIN LEVEL: 0
L1D AVERAGE MISS LATENCY: 7.75435e+06 cycles
L1D RQ	ACCESS:   41965504	FORWARD:          0	MERGED:   14180052	TO_CACHE:   27562162
L1D WQ	ACCESS:   20207881	FORWARD:     266047	MERGED:     331513	TO_CACHE:   19876368
L1D PQ	ACCESS:   11877683	FORWARD:          0	MERGED:    1548536	TO_CACHE:   10286390

L1D UNIQUE REGIONS ACCESSED: 0
L1D REGIONS CONFLICTS: 0
L1D Cross Page Prefetch Requests: 8588547
L1D Same Page Prefetch Requests: 5096034
L1D ROI Sum of L1D PQ occupancy: 158889790
L1D PREFETCHES PUSHED FROM L2C: 0
L1I TOTAL     ACCESS:   36284627  HIT:   31133171  MISS:    5151456  HIT %:    85.8026  MISS %:    14.1974   MPKI: 25.7573
L1I LOAD      ACCESS:   36284627  HIT:   31133171  MISS:    5151456  HIT %:    85.8026  MISS %:    14.1974   MPKI: 25.7573
L1I PREFETCH  REQUESTED:          0  ISSUED:          0  USEFUL:          0  USELESS:          0
L1I USEFUL LOAD PREFETCHES:          0 PREFETCH ISSUED TO LOWER LEVEL:          0  ACCURACY: -nan
L1I TIMELY PREFETCHES:          0 LATE PREFETCHES: 0 DROPPED PREFETCHES: 0
L1I PREFETCHES SAME FILL-ORIGIN LEVEL: 0 DIFFERENT FILL-ORIGIN LEVEL: 0
L1I AVERAGE MISS LATENCY: 24.7904 cycles
L1I RQ	ACCESS:   57138970	FORWARD:          0	MERGED:   19019545	TO_CACHE:   38119425

BTB TOTAL     ACCESS:   22212153  HIT:   17957529  MISS:    4254624  HIT %:    80.8455  MISS %:    19.1545   MPKI: 21.2731
BTB BRANCH_DIRECT_JUMP	ACCESS:    1780172  HIT:    1545024  MISS:     235148
BTB BRANCH_INDIRECT	ACCESS:    9535407  HIT:    7469894  MISS:    2065513
BTB BRANCH_CONDITIONAL	ACCESS:    4548641  HIT:    4163963  MISS:     384678
BTB BRANCH_DIRECT_CALL	ACCESS:    2494547  HIT:    2037677  MISS:     456870
BTB BRANCH_INDIRECT_CALL	ACCESS:     678804  HIT:     637539  MISS:      41265
BTB BRANCH_RETURN	ACCESS:    3174582  HIT:    2103432  MISS:    1071150
BTB BRANCH_OTHER ACCESS:          0  HIT:          0  MISS:          0

L2C TOTAL     ACCESS:    9645983  HIT:    6464664  MISS:    3181319  HIT %:    67.0192  MISS %:    32.9808   MPKI: 15.9066
L2C LOAD      ACCESS:    7097921  HIT:    4404165  MISS:    2693756  HIT %:    62.0487  MISS %:    37.9513   MPKI: 13.4688
L2C DATA LOAD MPKI: 4.44806
L2C INSTRUCTION LOAD MPKI: 9.02072
L2C RFO       ACCESS:     323966  HIT:     184880  MISS:     139086  HIT %:    57.0677  MISS %:    42.9323   MPKI: 0.69543
L2C PREFETCH  ACCESS:     307765  HIT:     206988  MISS:     100777  HIT %:    67.2552  MISS %:    32.7448   MPKI: 0.503885
AGUS PREFETCH L1 MISS: 0
L2C DATA PREFETCH MPKI: 0.503885
L2C INSTRUCTION PREFETCH MPKI: 0
L2C WRITEBACK ACCESS:    1021008  HIT:     967491  MISS:      53517  HIT %:    94.7584  MISS %:    5.24158   MPKI: 0.267585
L2C LOAD TRANSLATION ACCESS:     412955  HIT:     251896  MISS:     161059  HIT %:    60.9984  MISS %:    39.0016   MPKI: 0.805295
L2C TRANSLATION FROM L1D PREFETCHER ACCESS:     482368  HIT:     449244  MISS:      33124  HIT %:     93.133  MISS %:    6.86696   MPKI: 0.16562
L2C PREFETCH  REQUESTED:          0  ISSUED:          0  USEFUL:      29503  USELESS:     104231
L2C USEFUL LOAD PREFETCHES:      29503 PREFETCH ISSUED TO LOWER LEVEL:     100777  ACCURACY: 29.2755
L2C TIMELY PREFETCHES:      29503 LATE PREFETCHES: 0 DROPPED PREFETCHES: 0
L2C PREFETCHES SAME FILL-ORIGIN LEVEL: 0 DIFFERENT FILL-ORIGIN LEVEL: 0
L2C AVERAGE MISS LATENCY: 43.7572 cycles
L2C RQ	ACCESS:    8317282	FORWARD:          0	MERGED:          0	TO_CACHE:    8317210
L2C WQ	ACCESS:    1021008	FORWARD:        111	MERGED:          0	TO_CACHE:    1021008
L2C PQ	ACCESS:     307804	FORWARD:          0	MERGED:          0	TO_CACHE:     307765

L2C Instructions Evicting Data 660743
L2C Translations Evicting Data 76950
L2C Data Evicting Data 425734
L2C Instructions Evicting Instructions 1038381
L2C Translations Evicting Instructions 105394
L2C Data Evicting Instructions 629829
L2C Instructions Evicting Translations 105020
L2C Translations Evicting Translations 11839
L2C Data Evicting Translations 73912
L2C Dense regions hint from L2: 0
PSCL5 TOTAL     ACCESS:     631976  HIT:     631976  MISS:          0  HIT %:        100  MISS %:          0   MPKI: 0
PSCL5 LOAD TRANSLATION ACCESS:     313431  HIT:     313431  MISS:          0  HIT %:        100  MISS %:          0   MPKI: 0
PSCL5 TRANSLATION FROM L1D PREFETCHER ACCESS:     318545  HIT:     318545  MISS:          0  HIT %:        100  MISS %:          0   MPKI: 0
PSCL5 PREFETCH  REQUESTED:          0  ISSUED:          0  USEFUL:          0  USELESS:          0
PSCL5 USEFUL LOAD PREFETCHES:          0 PREFETCH ISSUED TO LOWER LEVEL:          0  ACCURACY: -nan
PSCL5 TIMELY PREFETCHES:          0 LATE PREFETCHES: 0 DROPPED PREFETCHES: 0
PSCL5 PREFETCHES SAME FILL-ORIGIN LEVEL: 0 DIFFERENT FILL-ORIGIN LEVEL: 0

PSCL4 TOTAL     ACCESS:     554236  HIT:     553695  MISS:        541  HIT %:    99.9024  MISS %:  0.0976118   MPKI: 0.002705
PSCL4 LOAD TRANSLATION ACCESS:     278405  HIT:     277864  MISS:        541  HIT %:    99.8057  MISS %:   0.194321   MPKI: 0.002705
PSCL4 TRANSLATION FROM L1D PREFETCHER ACCESS:     275831  HIT:     275831  MISS:          0  HIT %:        100  MISS %:          0   MPKI: 0
PSCL4 PREFETCH  REQUESTED:          0  ISSUED:          0  USEFUL:          0  USELESS:          0
PSCL4 USEFUL LOAD PREFETCHES:          0 PREFETCH ISSUED TO LOWER LEVEL:          0  ACCURACY: -nan
PSCL4 TIMELY PREFETCHES:          0 LATE PREFETCHES: 0 DROPPED PREFETCHES: 0
PSCL4 PREFETCHES SAME FILL-ORIGIN LEVEL: 0 DIFFERENT FILL-ORIGIN LEVEL: 0

PSCL3 TOTAL     ACCESS:     587137  HIT:     585513  MISS:       1624  HIT %:    99.7234  MISS %:   0.276596   MPKI: 0.00812
PSCL3 LOAD TRANSLATION ACCESS:     311216  HIT:     309592  MISS:       1624  HIT %:    99.4782  MISS %:   0.521824   MPKI: 0.00812
PSCL3 TRANSLATION FROM L1D PREFETCHER ACCESS:     275921  HIT:     275921  MISS:          0  HIT %:        100  MISS %:          0   MPKI: 0
PSCL3 PREFETCH  REQUESTED:          0  ISSUED:          0  USEFUL:          0  USELESS:          0
PSCL3 USEFUL LOAD PREFETCHES:          0 PREFETCH ISSUED TO LOWER LEVEL:          0  ACCURACY: -nan
PSCL3 TIMELY PREFETCHES:          0 LATE PREFETCHES: 0 DROPPED PREFETCHES: 0
PSCL3 PREFETCHES SAME FILL-ORIGIN LEVEL: 0 DIFFERENT FILL-ORIGIN LEVEL: 0

PSCL2 TOTAL     ACCESS:     369308  HIT:     266435  MISS:     102873  HIT %:    72.1444  MISS %:    27.8556   MPKI: 0.514365
PSCL2 LOAD TRANSLATION ACCESS:     318921  HIT:     216048  MISS:     102873  HIT %:    67.7434  MISS %:    32.2566   MPKI: 0.514365
PSCL2 TRANSLATION FROM L1D PREFETCHER ACCESS:      50387  HIT:      50387  MISS:          0  HIT %:        100  MISS %:          0   MPKI: 0
PSCL2 PREFETCH  REQUESTED:          0  ISSUED:          0  USEFUL:          0  USELESS:          0
PSCL2 USEFUL LOAD PREFETCHES:          0 PREFETCH ISSUED TO LOWER LEVEL:          0  ACCURACY: -nan
PSCL2 TIMELY PREFETCHES:          0 LATE PREFETCHES: 0 DROPPED PREFETCHES: 0
PSCL2 PREFETCHES SAME FILL-ORIGIN LEVEL: 0 DIFFERENT FILL-ORIGIN LEVEL: 0

LLC TOTAL     ACCESS:    3552623  HIT:    3253127  MISS:     299496  HIT %:    91.5697  MISS %:    8.43028   MPKI: 1.49748
LLC LOAD      ACCESS:    2693756  HIT:    2464347  MISS:     229409  HIT %:    91.4837  MISS %:    8.51632   MPKI: 1.14704
LLC RFO       ACCESS:     139085  HIT:      93229  MISS:      45856  HIT %:    67.0302  MISS %:    32.9698   MPKI: 0.22928
LLC PREFETCH  ACCESS:     100777  HIT:      89815  MISS:      10962  HIT %:    89.1225  MISS %:    10.8775   MPKI: 0.05481
AGUS PREFETCH L1 MISS: 0
LLC WRITEBACK ACCESS:     424822  HIT:     423081  MISS:       1741  HIT %:    99.5902  MISS %:   0.409819   MPKI: 0.008705
LLC LOAD TRANSLATION ACCESS:     161059  HIT:     151253  MISS:       9806  HIT %:    93.9115  MISS %:    6.08845   MPKI: 0.04903
LLC TRANSLATION FROM L1D PREFETCHER ACCESS:      33124  HIT:      31402  MISS:       1722  HIT %:    94.8014  MISS %:    5.19865   MPKI: 0.00861
LLC PREFETCH  REQUESTED:          0  ISSUED:          0  USEFUL:       2015  USELESS:      10403
LLC USEFUL LOAD PREFETCHES:       2015 PREFETCH ISSUED TO LOWER LEVEL:      10962  ACCURACY: 18.3817
LLC TIMELY PREFETCHES:       2015 LATE PREFETCHES: 0 DROPPED PREFETCHES: 0
LLC PREFETCHES SAME FILL-ORIGIN LEVEL: 0 DIFFERENT FILL-ORIGIN LEVEL: 0
LLC AVERAGE MISS LATENCY: 151.488 cycles
LLC RQ	ACCESS:    3027025	FORWARD:          0	MERGED:          0	TO_CACHE:    3027024
LLC WQ	ACCESS:     424822	FORWARD:          1	MERGED:          0	TO_CACHE:     424822
LLC PQ	ACCESS:     100777	FORWARD:          0	MERGED:          0	TO_CACHE:     100777

LLC Dense regions hint to LLC: 0

RAW hits: 2838424
Loads Generated: 44803929
Loads sent to L1D: 41965504
Stores Generated: 20207846
Stores sent to L1D: 20207881
Major fault: 0 Minor fault: 5869
Allocated PAGES: 5869
Completed 

DRAM Statistics
 CHANNEL 0
 RQ ROW_BUFFER_HIT:      58486  ROW_BUFFER_MISS:     239269
 DBUS_CONGESTED:        236
 WQ ROW_BUFFER_HIT:      28715  ROW_BUFFER_MISS:     184263  FULL:          0

 AVG_CONGESTED_CYCLE: 4
 All warmup complete: 2
Channel 0 Bank busy for read cycles: 0
Channel 0 Bank busy for write cycles: 0
Channel 0
Rank 0
0banks busy for read cycles: 376353725
0banks busy for write cycles: 119031
1banks busy for read cycles: 27248889
1banks busy for write cycles: 16696281
2banks busy for read cycles: 3736014
2banks busy for write cycles: 4009158
3banks busy for read cycles: 507693
3banks busy for write cycles: 1333512
4banks busy for read cycles: 201623
4banks busy for write cycles: 721817
5banks busy for read cycles: 105212
5banks busy for write cycles: 444817
6banks busy for read cycles: 73493
6banks busy for write cycles: 303574
7banks busy for read cycles: 56481
7banks busy for write cycles: 240994
8banks busy for read cycles: 50381
8banks busy for write cycles: 241641

CPU 0 Branch Prediction Accuracy: 99.8674% MPKI: 0.23804 Average ROB Occupancy at Mispredict: 57.8592
Branch types
NOT_BRANCH: 164099013 82.0495%
BRANCH_DIRECT_JUMP: 1780172 0.890086%
BRANCH_INDIRECT: 9535407 4.7677%
BRANCH_CONDITIONAL: 18237136 9.11857%
BRANCH_DIRECT_CALL: 2494547 1.24727%
BRANCH_INDIRECT_CALL: 678804 0.339402%
BRANCH_RETURN: 3174582 1.58729%
BRANCH_OTHER: 0 0%

DRAM PAGES: 1048576
Allocated PAGES: 5869
