
*** ChampSim Multicore Out-of-Order Simulator ***

Warmup Instructions: 50000000
Simulation Instructions: 200000000
Number of CPUs: 1
LLC sets: 2048
LLC ways: 16
Off-chip DRAM Size: 4096 MB Channels: 1 Width: 64-bit Data Rate: 6400 MT/s
CPU 0 runs traces/spec2k17/srv_15.champsimtrace.xz
.xz
BTB has LRU replacement policy
ITLB has LRU replacement policy
DTLB has LRU replacement policy
STLB has LRU replacement policy
L1I has LRU replacement policy
L1D has LRU replacement policy
Initialize SRRIP state for L2C
Initialize DRRIP state for LLC
Heartbeat CPU 0 instructions: 10000002 cycles: 2855603 heartbeat IPC: 3.50189 cumulative IPC: 3.50189 (Simulation time: 0 hr 0 min 22 sec) 
Heartbeat CPU 0 instructions: 20000001 cycles: 5702125 heartbeat IPC: 3.51306 cumulative IPC: 3.50746 (Simulation time: 0 hr 0 min 45 sec) 
Heartbeat CPU 0 instructions: 30000000 cycles: 8552612 heartbeat IPC: 3.50817 cumulative IPC: 3.5077 (Simulation time: 0 hr 1 min 7 sec) 
*** Reached end of trace for Core: 0 Repeating trace: traces/spec2k17/srv_15.champsimtrace.xz
Heartbeat CPU 0 instructions: 40000000 cycles: 11412048 heartbeat IPC: 3.49719 cumulative IPC: 3.50507 (Simulation time: 0 hr 1 min 30 sec) 
Heartbeat CPU 0 instructions: 50000001 cycles: 14271647 heartbeat IPC: 3.49699 cumulative IPC: 3.50345 (Simulation time: 0 hr 1 min 53 sec) 

Warmup complete CPU 0 instructions: 50000001 cycles: 14271647 (Simulation time: 0 hr 1 min 53 sec) 

Heartbeat CPU 0 instructions: 60000000 cycles: 46150968 heartbeat IPC: 0.313683 cumulative IPC: 0.313683 (Simulation time: 0 hr 2 min 32 sec) 
*** Reached end of trace for Core: 0 Repeating trace: traces/spec2k17/srv_15.champsimtrace.xz
Heartbeat CPU 0 instructions: 70000000 cycles: 77963012 heartbeat IPC: 0.314346 cumulative IPC: 0.314014 (Simulation time: 0 hr 3 min 12 sec) 
Heartbeat CPU 0 instructions: 80000001 cycles: 109828389 heartbeat IPC: 0.31382 cumulative IPC: 0.31395 (Simulation time: 0 hr 3 min 52 sec) 
Heartbeat CPU 0 instructions: 90000001 cycles: 141254391 heartbeat IPC: 0.318208 cumulative IPC: 0.315003 (Simulation time: 0 hr 4 min 32 sec) 
*** Reached end of trace for Core: 0 Repeating trace: traces/spec2k17/srv_15.champsimtrace.xz
Heartbeat CPU 0 instructions: 100000002 cycles: 173044293 heartbeat IPC: 0.314565 cumulative IPC: 0.314916 (Simulation time: 0 hr 5 min 12 sec) 
Heartbeat CPU 0 instructions: 110000000 cycles: 204599069 heartbeat IPC: 0.316909 cumulative IPC: 0.315246 (Simulation time: 0 hr 5 min 53 sec) 
Heartbeat CPU 0 instructions: 120000001 cycles: 236014292 heartbeat IPC: 0.318317 cumulative IPC: 0.315681 (Simulation time: 0 hr 6 min 32 sec) 
*** Reached end of trace for Core: 0 Repeating trace: traces/spec2k17/srv_15.champsimtrace.xz
Heartbeat CPU 0 instructions: 130000001 cycles: 267759560 heartbeat IPC: 0.315008 cumulative IPC: 0.315597 (Simulation time: 0 hr 7 min 13 sec) 
Heartbeat CPU 0 instructions: 140000000 cycles: 299081668 heartbeat IPC: 0.319263 cumulative IPC: 0.316 (Simulation time: 0 hr 7 min 53 sec) 
Heartbeat CPU 0 instructions: 150000003 cycles: 330516098 heartbeat IPC: 0.318123 cumulative IPC: 0.316211 (Simulation time: 0 hr 8 min 33 sec) 
*** Reached end of trace for Core: 0 Repeating trace: traces/spec2k17/srv_15.champsimtrace.xz
Heartbeat CPU 0 instructions: 160000000 cycles: 362223576 heartbeat IPC: 0.315383 cumulative IPC: 0.316136 (Simulation time: 0 hr 9 min 13 sec) 
Heartbeat CPU 0 instructions: 170000002 cycles: 393603350 heartbeat IPC: 0.318677 cumulative IPC: 0.316346 (Simulation time: 0 hr 9 min 53 sec) 
Heartbeat CPU 0 instructions: 180000000 cycles: 425145540 heartbeat IPC: 0.317036 cumulative IPC: 0.316399 (Simulation time: 0 hr 10 min 33 sec) 
*** Reached end of trace for Core: 0 Repeating trace: traces/spec2k17/srv_15.champsimtrace.xz
Heartbeat CPU 0 instructions: 190000003 cycles: 456603273 heartbeat IPC: 0.317887 cumulative IPC: 0.316505 (Simulation time: 0 hr 11 min 13 sec) 
Heartbeat CPU 0 instructions: 200000001 cycles: 488129237 heartbeat IPC: 0.317199 cumulative IPC: 0.316551 (Simulation time: 0 hr 11 min 53 sec) 
Heartbeat CPU 0 instructions: 210000001 cycles: 519548702 heartbeat IPC: 0.318274 cumulative IPC: 0.316658 (Simulation time: 0 hr 12 min 33 sec) 
*** Reached end of trace for Core: 0 Repeating trace: traces/spec2k17/srv_15.champsimtrace.xz
Heartbeat CPU 0 instructions: 220000000 cycles: 550932174 heartbeat IPC: 0.318639 cumulative IPC: 0.316774 (Simulation time: 0 hr 13 min 13 sec) 
Heartbeat CPU 0 instructions: 230000001 cycles: 582497558 heartbeat IPC: 0.316803 cumulative IPC: 0.316775 (Simulation time: 0 hr 13 min 53 sec) 
Heartbeat CPU 0 instructions: 240000001 cycles: 613899179 heartbeat IPC: 0.318455 cumulative IPC: 0.316863 (Simulation time: 0 hr 14 min 33 sec) 
Heartbeat CPU 0 instructions: 250000000 cycles: 645336109 heartbeat IPC: 0.318097 cumulative IPC: 0.316925 (Simulation time: 0 hr 15 min 14 sec) 
Finished CPU 0 instructions: 200000000 cycles: 631064463 cumulative IPC: 0.316925 (Simulation time: 0 hr 15 min 14 sec) 

ChampSim completed all CPUs

Region of Interest Statistics

CPU 0 cumulative IPC: 0.316925 instructions: 200000000 cycles: 631064463
ITLB TOTAL     ACCESS:   35714237  HIT:   33459854  MISS:    2254383  HIT %:    93.6877  MISS %:    6.31228   MPKI: 11.2719
ITLB LOAD TRANSLATION ACCESS:   35714237  HIT:   33459854  MISS:    2254383  HIT %:    93.6877  MISS %:    6.31228   MPKI: 11.2719
ITLB PREFETCH  REQUESTED:          0  ISSUED:          0  USEFUL:          0  USELESS:          0
ITLB USEFUL LOAD PREFETCHES:          0 PREFETCH ISSUED TO LOWER LEVEL:          0  ACCURACY: -nan
ITLB TIMELY PREFETCHES:          0 LATE PREFETCHES: 0 DROPPED PREFETCHES: 0
ITLB PREFETCHES SAME FILL-ORIGIN LEVEL: 0 DIFFERENT FILL-ORIGIN LEVEL: 0
ITLB AVERAGE MISS LATENCY: 9.23427 cycles
ITLB RQ	ACCESS:   41956678	FORWARD:          0	MERGED:    5694630	TO_CACHE:   36262048

DTLB TOTAL     ACCESS:   45777930  HIT:   43739098  MISS:    2038832  HIT %:    95.5463  MISS %:    4.45374   MPKI: 10.1942
DTLB LOAD TRANSLATION ACCESS:   45777930  HIT:   43739098  MISS:    2038832  HIT %:    95.5463  MISS %:    4.45374   MPKI: 10.1942
DTLB PREFETCH  REQUESTED:          0  ISSUED:          0  USEFUL:          0  USELESS:          0
DTLB USEFUL LOAD PREFETCHES:          0 PREFETCH ISSUED TO LOWER LEVEL:          0  ACCURACY: -nan
DTLB TIMELY PREFETCHES:          0 LATE PREFETCHES: 0 DROPPED PREFETCHES: 0
DTLB PREFETCHES SAME FILL-ORIGIN LEVEL: 0 DIFFERENT FILL-ORIGIN LEVEL: 0
DTLB AVERAGE MISS LATENCY: 8.28391 cycles
DTLB RQ	ACCESS:   60536413	FORWARD:          0	MERGED:   14700109	TO_CACHE:   45836304

STLB TOTAL     ACCESS:   22881232  HIT:   22849374  MISS:      31858  HIT %:    99.8608  MISS %:   0.139232   MPKI: 0.15929
STLB LOAD TRANSLATION ACCESS:    4293215  HIT:    4264711  MISS:      28504  HIT %:    99.3361  MISS %:   0.663931   MPKI: 0.14252
STLB TRANSLATION FROM L1D PREFETCHER ACCESS:   18588017  HIT:   18584663  MISS:       3354  HIT %:     99.982  MISS %:  0.0180439   MPKI: 0.01677
STLB PREFETCH  REQUESTED:          0  ISSUED:          0  USEFUL:       3131  USELESS:        222
STLB USEFUL LOAD PREFETCHES:       3131 PREFETCH ISSUED TO LOWER LEVEL:          0  ACCURACY: inf
STLB TIMELY PREFETCHES:       3131 LATE PREFETCHES: 1183 DROPPED PREFETCHES: 220964
STLB PREFETCHES SAME FILL-ORIGIN LEVEL: 0 DIFFERENT FILL-ORIGIN LEVEL: 0
STLB AVERAGE MISS LATENCY: 29.9867 cycles
STLB RQ	ACCESS:   27124899	FORWARD:          0	MERGED:    4020236	TO_CACHE:   23104663

STLB Hit, L1D data hit: 0
STLB Hit, L2C data hit: 0
STLB Hit, LLC data hit: 0
STLB Hit, LLC data miss: 0
STLB STLB hints to L2: 0
L1D TOTAL     ACCESS:   79599633  HIT:   73563883  MISS:    6035750  HIT %:    92.4174  MISS %:    7.58264   MPKI: 30.1788
L1D LOAD      ACCESS:   33991303  HIT:   30798084  MISS:    3193219  HIT %:    90.6058  MISS %:    9.39422   MPKI: 15.9661
L1D RFO       ACCESS:   24826908  HIT:   23725979  MISS:    1100929  HIT %:    95.5656  MISS %:    4.43442   MPKI: 5.50465
L1D PREFETCH  ACCESS:   20781422  HIT:   19039820  MISS:    1741602  HIT %:    91.6194  MISS %:    8.38057   MPKI: 8.70801
AGUS PREFETCH L1 MISS: 0
L1D PREFETCH  REQUESTED:   47813276  ISSUED:   47813206  USEFUL:    1259010  USELESS:     482529
L1D USEFUL LOAD PREFETCHES:    1259010 PREFETCH ISSUED TO LOWER LEVEL:    2763729  ACCURACY: 45.5548
L1D TIMELY PREFETCHES:    1259010 LATE PREFETCHES: 1016215 DROPPED PREFETCHES: 248778
L1D PREFETCHES SAME FILL-ORIGIN LEVEL: 2763729 DIFFERENT FILL-ORIGIN LEVEL: 0
L1D AVERAGE MISS LATENCY: 5.96486e+07 cycles
L1D RQ	ACCESS:   46511572	FORWARD:          0	MERGED:   12092053	TO_CACHE:   34095123
L1D WQ	ACCESS:   26586297	FORWARD:     362022	MERGED:     145007	TO_CACHE:   26441290
L1D PQ	ACCESS:   24981522	FORWARD:          0	MERGED:    2112212	TO_CACHE:   22831684

L1D UNIQUE REGIONS ACCESSED: 0
L1D REGIONS CONFLICTS: 0
L1D Cross Page Prefetch Requests: 16404331
L1D Same Page Prefetch Requests: 10258463
L1D ROI Sum of L1D PQ occupancy: 314737623
L1D PREFETCHES PUSHED FROM L2C: 0
L1I TOTAL     ACCESS:   40229118  HIT:   28785240  MISS:   11443878  HIT %:    71.5532  MISS %:    28.4468   MPKI: 57.2194
L1I LOAD      ACCESS:   40229118  HIT:   28785240  MISS:   11443878  HIT %:    71.5532  MISS %:    28.4468   MPKI: 57.2194
L1I PREFETCH  REQUESTED:          0  ISSUED:          0  USEFUL:          0  USELESS:          0
L1I USEFUL LOAD PREFETCHES:          0 PREFETCH ISSUED TO LOWER LEVEL:          0  ACCURACY: -nan
L1I TIMELY PREFETCHES:          0 LATE PREFETCHES: 0 DROPPED PREFETCHES: 0
L1I PREFETCHES SAME FILL-ORIGIN LEVEL: 0 DIFFERENT FILL-ORIGIN LEVEL: 0
L1I AVERAGE MISS LATENCY: 15.8202 cycles
L1I RQ	ACCESS:   58624481	FORWARD:          0	MERGED:   16667803	TO_CACHE:   41956678

BTB TOTAL     ACCESS:   30711834  HIT:   18461269  MISS:   12250565  HIT %:    60.1113  MISS %:    39.8887   MPKI: 61.2528
BTB BRANCH_DIRECT_JUMP	ACCESS:    1879118  HIT:    1082631  MISS:     796487
BTB BRANCH_INDIRECT	ACCESS:   12151419  HIT:    7482079  MISS:    4669340
BTB BRANCH_CONDITIONAL	ACCESS:    7502017  HIT:    6260758  MISS:    1241259
BTB BRANCH_DIRECT_CALL	ACCESS:    3871933  HIT:    1894091  MISS:    1977842
BTB BRANCH_INDIRECT_CALL	ACCESS:     717697  HIT:     351527  MISS:     366170
BTB BRANCH_RETURN	ACCESS:    4589650  HIT:    1390183  MISS:    3199467
BTB BRANCH_OTHER ACCESS:          0  HIT:          0  MISS:          0

L2C TOTAL     ACCESS:   20152919  HIT:   18961829  MISS:    1191090  HIT %:    94.0897  MISS %:    5.91026   MPKI: 5.95545
L2C LOAD      ACCESS:   13620851  HIT:   12745417  MISS:     875434  HIT %:    93.5728  MISS %:    6.42716   MPKI: 4.37717
L2C DATA LOAD MPKI: 1.05179
L2C INSTRUCTION LOAD MPKI: 3.32538
L2C RFO       ACCESS:    1095013  HIT:    1030172  MISS:      64841  HIT %:    94.0785  MISS %:    5.92148   MPKI: 0.324205
L2C PREFETCH  ACCESS:    2763635  HIT:    2567372  MISS:     196263  HIT %:    92.8984  MISS %:    7.10163   MPKI: 0.981315
AGUS PREFETCH L1 MISS: 0
L2C DATA PREFETCH MPKI: 0.981315
L2C INSTRUCTION PREFETCH MPKI: 0
L2C WRITEBACK ACCESS:    2326769  HIT:    2300978  MISS:      25791  HIT %:    98.8916  MISS %:    1.10845   MPKI: 0.128955
L2C LOAD TRANSLATION ACCESS:      28266  HIT:      17682  MISS:      10584  HIT %:    62.5557  MISS %:    37.4443   MPKI: 0.05292
L2C TRANSLATION FROM L1D PREFETCHER ACCESS:     318385  HIT:     300208  MISS:      18177  HIT %:    94.2909  MISS %:    5.70913   MPKI: 0.090885
L2C PREFETCH  REQUESTED:          0  ISSUED:          0  USEFUL:      25575  USELESS:     188748
L2C USEFUL LOAD PREFETCHES:      25575 PREFETCH ISSUED TO LOWER LEVEL:     196263  ACCURACY: 13.031
L2C TIMELY PREFETCHES:      25575 LATE PREFETCHES: 0 DROPPED PREFETCHES: 0
L2C PREFETCHES SAME FILL-ORIGIN LEVEL: 0 DIFFERENT FILL-ORIGIN LEVEL: 0
L2C AVERAGE MISS LATENCY: 29.8966 cycles
L2C RQ	ACCESS:   15062550	FORWARD:          0	MERGED:          0	TO_CACHE:   15062515
L2C WQ	ACCESS:    2326769	FORWARD:        129	MERGED:          0	TO_CACHE:    2326769
L2C PQ	ACCESS:    2763729	FORWARD:          0	MERGED:          0	TO_CACHE:    2763635

L2C Instructions Evicting Data 266897
L2C Translations Evicting Data 13218
L2C Data Evicting Data 208296
L2C Instructions Evicting Instructions 383889
L2C Translations Evicting Instructions 14517
L2C Data Evicting Instructions 250237
L2C Instructions Evicting Translations 14290
L2C Translations Evicting Translations 1024
L2C Data Evicting Translations 12929
L2C Dense regions hint from L2: 0
PSCL5 TOTAL     ACCESS:     252115  HIT:     252115  MISS:          0  HIT %:        100  MISS %:          0   MPKI: 0
PSCL5 LOAD TRANSLATION ACCESS:      27321  HIT:      27321  MISS:          0  HIT %:        100  MISS %:          0   MPKI: 0
PSCL5 TRANSLATION FROM L1D PREFETCHER ACCESS:     224794  HIT:     224794  MISS:          0  HIT %:        100  MISS %:          0   MPKI: 0
PSCL5 PREFETCH  REQUESTED:          0  ISSUED:          0  USEFUL:          0  USELESS:          0
PSCL5 USEFUL LOAD PREFETCHES:          0 PREFETCH ISSUED TO LOWER LEVEL:          0  ACCURACY: -nan
PSCL5 TIMELY PREFETCHES:          0 LATE PREFETCHES: 0 DROPPED PREFETCHES: 0
PSCL5 PREFETCHES SAME FILL-ORIGIN LEVEL: 0 DIFFERENT FILL-ORIGIN LEVEL: 0

PSCL4 TOTAL     ACCESS:     168391  HIT:     168298  MISS:         93  HIT %:    99.9448  MISS %:  0.0552286   MPKI: 0.000465
PSCL4 LOAD TRANSLATION ACCESS:      24785  HIT:      24692  MISS:         93  HIT %:    99.6248  MISS %:   0.375227   MPKI: 0.000465
PSCL4 TRANSLATION FROM L1D PREFETCHER ACCESS:     143606  HIT:     143606  MISS:          0  HIT %:        100  MISS %:          0   MPKI: 0
PSCL4 PREFETCH  REQUESTED:          0  ISSUED:          0  USEFUL:          0  USELESS:          0
PSCL4 USEFUL LOAD PREFETCHES:          0 PREFETCH ISSUED TO LOWER LEVEL:          0  ACCURACY: -nan
PSCL4 TIMELY PREFETCHES:          0 LATE PREFETCHES: 0 DROPPED PREFETCHES: 0
PSCL4 PREFETCHES SAME FILL-ORIGIN LEVEL: 0 DIFFERENT FILL-ORIGIN LEVEL: 0

PSCL3 TOTAL     ACCESS:     196598  HIT:     196505  MISS:         93  HIT %:    99.9527  MISS %:  0.0473047   MPKI: 0.000465
PSCL3 LOAD TRANSLATION ACCESS:      25482  HIT:      25389  MISS:         93  HIT %:     99.635  MISS %:   0.364964   MPKI: 0.000465
PSCL3 TRANSLATION FROM L1D PREFETCHER ACCESS:     171116  HIT:     171116  MISS:          0  HIT %:        100  MISS %:          0   MPKI: 0
PSCL3 PREFETCH  REQUESTED:          0  ISSUED:          0  USEFUL:          0  USELESS:          0
PSCL3 USEFUL LOAD PREFETCHES:          0 PREFETCH ISSUED TO LOWER LEVEL:          0  ACCURACY: -nan
PSCL3 TIMELY PREFETCHES:          0 LATE PREFETCHES: 0 DROPPED PREFETCHES: 0
PSCL3 PREFETCHES SAME FILL-ORIGIN LEVEL: 0 DIFFERENT FILL-ORIGIN LEVEL: 0

PSCL2 TOTAL     ACCESS:     107473  HIT:     106535  MISS:        938  HIT %:    99.1272  MISS %:   0.872777   MPKI: 0.00469
PSCL2 LOAD TRANSLATION ACCESS:      27468  HIT:      26530  MISS:        938  HIT %:    96.5851  MISS %:    3.41488   MPKI: 0.00469
PSCL2 TRANSLATION FROM L1D PREFETCHER ACCESS:      80005  HIT:      80005  MISS:          0  HIT %:        100  MISS %:          0   MPKI: 0
PSCL2 PREFETCH  REQUESTED:          0  ISSUED:          0  USEFUL:          0  USELESS:          0
PSCL2 USEFUL LOAD PREFETCHES:          0 PREFETCH ISSUED TO LOWER LEVEL:          0  ACCURACY: -nan
PSCL2 TIMELY PREFETCHES:          0 LATE PREFETCHES: 0 DROPPED PREFETCHES: 0
PSCL2 PREFETCHES SAME FILL-ORIGIN LEVEL: 0 DIFFERENT FILL-ORIGIN LEVEL: 0

LLC TOTAL     ACCESS:    1270562  HIT:    1266455  MISS:       4107  HIT %:    99.6768  MISS %:   0.323243   MPKI: 0.020535
LLC LOAD      ACCESS:     875434  HIT:     874063  MISS:       1371  HIT %:    99.8434  MISS %:   0.156608   MPKI: 0.006855
LLC RFO       ACCESS:      64838  HIT:      64603  MISS:        235  HIT %:    99.6376  MISS %:   0.362442   MPKI: 0.001175
LLC PREFETCH  ACCESS:     196263  HIT:     194157  MISS:       2106  HIT %:     98.927  MISS %:    1.07305   MPKI: 0.01053
AGUS PREFETCH L1 MISS: 0
LLC WRITEBACK ACCESS:     105266  HIT:     105249  MISS:         17  HIT %:    99.9839  MISS %:  0.0161496   MPKI: 8.5e-05
LLC LOAD TRANSLATION ACCESS:      10584  HIT:      10566  MISS:         18  HIT %:    99.8299  MISS %:   0.170068   MPKI: 9e-05
LLC TRANSLATION FROM L1D PREFETCHER ACCESS:      18177  HIT:      17817  MISS:        360  HIT %:    98.0195  MISS %:    1.98052   MPKI: 0.0018
LLC PREFETCH  REQUESTED:          0  ISSUED:          0  USEFUL:       2243  USELESS:        733
LLC USEFUL LOAD PREFETCHES:       2243 PREFETCH ISSUED TO LOWER LEVEL:       2106  ACCURACY: 106.505
LLC TIMELY PREFETCHES:       2243 LATE PREFETCHES: 0 DROPPED PREFETCHES: 0
LLC PREFETCHES SAME FILL-ORIGIN LEVEL: 0 DIFFERENT FILL-ORIGIN LEVEL: 0
LLC AVERAGE MISS LATENCY: 158.427 cycles
LLC RQ	ACCESS:     969036	FORWARD:          0	MERGED:          0	TO_CACHE:     969033
LLC WQ	ACCESS:     105266	FORWARD:          3	MERGED:          0	TO_CACHE:     105266
LLC PQ	ACCESS:     196263	FORWARD:          0	MERGED:          0	TO_CACHE:     196263

LLC Dense regions hint to LLC: 0

RAW hits: 1457341
Loads Generated: 47968913
Loads sent to L1D: 46511572
Stores Generated: 26586297
Stores sent to L1D: 26586297
Major fault: 0 Minor fault: 1825
Allocated PAGES: 1825
Completed 

DRAM Statistics
 CHANNEL 0
 RQ ROW_BUFFER_HIT:        471  ROW_BUFFER_MISS:       3619
 DBUS_CONGESTED:          0
 WQ ROW_BUFFER_HIT:         11  ROW_BUFFER_MISS:        276  FULL:          0

 AVG_CONGESTED_CYCLE: -
 All warmup complete: 2
Channel 0 Bank busy for read cycles: 0
Channel 0 Bank busy for write cycles: 0
Channel 0
Rank 0
0banks busy for read cycles: 630536935
0banks busy for write cycles: 241
1banks busy for read cycles: 429473
1banks busy for write cycles: 33785
2banks busy for read cycles: 46162
2banks busy for write cycles: 3305
3banks busy for read cycles: 9165
3banks busy for write cycles: 1158
4banks busy for read cycles: 2981
4banks busy for write cycles: 262
5banks busy for read cycles: 827
5banks busy for write cycles: 0
6banks busy for read cycles: 140
6banks busy for write cycles: 0
7banks busy for read cycles: 30
7banks busy for write cycles: 0
8banks busy for read cycles: 0
8banks busy for write cycles: 0

CPU 0 Branch Prediction Accuracy: 99.883% MPKI: 0.21111 Average ROB Occupancy at Mispredict: 29.0333
Branch types
NOT_BRANCH: 163917805 81.9589%
BRANCH_DIRECT_JUMP: 1879118 0.939559%
BRANCH_INDIRECT: 12151419 6.07571%
BRANCH_CONDITIONAL: 12872317 6.43616%
BRANCH_DIRECT_CALL: 3871933 1.93597%
BRANCH_INDIRECT_CALL: 717697 0.358849%
BRANCH_RETURN: 4589650 2.29482%
BRANCH_OTHER: 0 0%

DRAM PAGES: 1048576
Allocated PAGES: 1825
