
*** ChampSim Multicore Out-of-Order Simulator ***

Warmup Instructions: 50000000
Simulation Instructions: 200000000
Number of CPUs: 1
LLC sets: 2048
LLC ways: 16
Off-chip DRAM Size: 4096 MB Channels: 1 Width: 64-bit Data Rate: 6400 MT/s
CPU 0 runs traces/spec2k17/srv_51.champsimtrace.xz
.xz
BTB has LRU replacement policy
ITLB has LRU replacement policy
DTLB has LRU replacement policy
STLB has LRU replacement policy
L1I has LRU replacement policy
L1D has LRU replacement policy
Initialize SRRIP state for L2C
Initialize DRRIP state for LLC
Heartbeat CPU 0 instructions: 10000001 cycles: 2876953 heartbeat IPC: 3.4759 cumulative IPC: 3.4759 (Simulation time: 0 hr 0 min 24 sec) 
Heartbeat CPU 0 instructions: 20000003 cycles: 5681024 heartbeat IPC: 3.56624 cumulative IPC: 3.52049 (Simulation time: 0 hr 0 min 47 sec) 
Heartbeat CPU 0 instructions: 30000003 cycles: 8554722 heartbeat IPC: 3.47984 cumulative IPC: 3.50684 (Simulation time: 0 hr 1 min 12 sec) 
*** Reached end of trace for Core: 0 Repeating trace: traces/spec2k17/srv_51.champsimtrace.xz
Heartbeat CPU 0 instructions: 40000002 cycles: 11421850 heartbeat IPC: 3.48781 cumulative IPC: 3.50206 (Simulation time: 0 hr 1 min 38 sec) 
Heartbeat CPU 0 instructions: 50000001 cycles: 14225846 heartbeat IPC: 3.56634 cumulative IPC: 3.51473 (Simulation time: 0 hr 2 min 3 sec) 

Warmup complete CPU 0 instructions: 50000001 cycles: 14225846 (Simulation time: 0 hr 2 min 3 sec) 

Heartbeat CPU 0 instructions: 60000000 cycles: 40267503 heartbeat IPC: 0.384 cumulative IPC: 0.384 (Simulation time: 0 hr 2 min 42 sec) 
*** Reached end of trace for Core: 0 Repeating trace: traces/spec2k17/srv_51.champsimtrace.xz
Heartbeat CPU 0 instructions: 70000002 cycles: 67801661 heartbeat IPC: 0.363185 cumulative IPC: 0.373303 (Simulation time: 0 hr 3 min 19 sec) 
Heartbeat CPU 0 instructions: 80000001 cycles: 84707771 heartbeat IPC: 0.591502 cumulative IPC: 0.425641 (Simulation time: 0 hr 3 min 53 sec) 
Heartbeat CPU 0 instructions: 90000001 cycles: 112260356 heartbeat IPC: 0.362942 cumulative IPC: 0.40802 (Simulation time: 0 hr 4 min 32 sec) 
*** Reached end of trace for Core: 0 Repeating trace: traces/spec2k17/srv_51.champsimtrace.xz
Heartbeat CPU 0 instructions: 100000001 cycles: 138796305 heartbeat IPC: 0.376847 cumulative IPC: 0.401379 (Simulation time: 0 hr 5 min 9 sec) 
Heartbeat CPU 0 instructions: 110000000 cycles: 156339304 heartbeat IPC: 0.570028 cumulative IPC: 0.422198 (Simulation time: 0 hr 5 min 43 sec) 
Heartbeat CPU 0 instructions: 120000000 cycles: 182965121 heartbeat IPC: 0.375575 cumulative IPC: 0.414841 (Simulation time: 0 hr 6 min 22 sec) 
*** Reached end of trace for Core: 0 Repeating trace: traces/spec2k17/srv_51.champsimtrace.xz
Heartbeat CPU 0 instructions: 130000000 cycles: 209773089 heartbeat IPC: 0.373023 cumulative IPC: 0.409108 (Simulation time: 0 hr 6 min 59 sec) 
Heartbeat CPU 0 instructions: 140000000 cycles: 229034537 heartbeat IPC: 0.519172 cumulative IPC: 0.418977 (Simulation time: 0 hr 7 min 34 sec) 
Heartbeat CPU 0 instructions: 150000000 cycles: 253206157 heartbeat IPC: 0.413708 cumulative IPC: 0.418445 (Simulation time: 0 hr 8 min 12 sec) 
*** Reached end of trace for Core: 0 Repeating trace: traces/spec2k17/srv_51.champsimtrace.xz
Heartbeat CPU 0 instructions: 160000003 cycles: 281192498 heartbeat IPC: 0.357317 cumulative IPC: 0.412036 (Simulation time: 0 hr 8 min 50 sec) 
Heartbeat CPU 0 instructions: 170000001 cycles: 301250727 heartbeat IPC: 0.498548 cumulative IPC: 0.418082 (Simulation time: 0 hr 9 min 25 sec) 
Heartbeat CPU 0 instructions: 180000002 cycles: 325475268 heartbeat IPC: 0.412805 cumulative IPC: 0.417671 (Simulation time: 0 hr 10 min 3 sec) 
*** Reached end of trace for Core: 0 Repeating trace: traces/spec2k17/srv_51.champsimtrace.xz
Heartbeat CPU 0 instructions: 190000001 cycles: 351642611 heartbeat IPC: 0.382156 cumulative IPC: 0.414917 (Simulation time: 0 hr 10 min 41 sec) 
Heartbeat CPU 0 instructions: 200000001 cycles: 373770365 heartbeat IPC: 0.451921 cumulative IPC: 0.417195 (Simulation time: 0 hr 11 min 17 sec) 
Heartbeat CPU 0 instructions: 210000002 cycles: 397548927 heartbeat IPC: 0.420547 cumulative IPC: 0.417402 (Simulation time: 0 hr 11 min 54 sec) 
*** Reached end of trace for Core: 0 Repeating trace: traces/spec2k17/srv_51.champsimtrace.xz
Heartbeat CPU 0 instructions: 220000000 cycles: 421745620 heartbeat IPC: 0.41328 cumulative IPC: 0.417158 (Simulation time: 0 hr 12 min 33 sec) 
Heartbeat CPU 0 instructions: 230000002 cycles: 446132842 heartbeat IPC: 0.410051 cumulative IPC: 0.416756 (Simulation time: 0 hr 13 min 10 sec) 
Heartbeat CPU 0 instructions: 240000001 cycles: 469558811 heartbeat IPC: 0.426877 cumulative IPC: 0.417277 (Simulation time: 0 hr 13 min 47 sec) 
*** Reached end of trace for Core: 0 Repeating trace: traces/spec2k17/srv_51.champsimtrace.xz
Heartbeat CPU 0 instructions: 250000003 cycles: 493188762 heartbeat IPC: 0.423192 cumulative IPC: 0.417569 (Simulation time: 0 hr 14 min 23 sec) 
Finished CPU 0 instructions: 200000002 cycles: 478962916 cumulative IPC: 0.417569 (Simulation time: 0 hr 14 min 23 sec) 

ChampSim completed all CPUs

Region of Interest Statistics

CPU 0 cumulative IPC: 0.417569 instructions: 200000002 cycles: 478962916
ITLB TOTAL     ACCESS:   34149472  HIT:   33258485  MISS:     890987  HIT %:    97.3909  MISS %:    2.60908   MPKI: 4.45493
ITLB LOAD TRANSLATION ACCESS:   34149472  HIT:   33258485  MISS:     890987  HIT %:    97.3909  MISS %:    2.60908   MPKI: 4.45493
ITLB PREFETCH  REQUESTED:          0  ISSUED:          0  USEFUL:          0  USELESS:          0
ITLB USEFUL LOAD PREFETCHES:          0 PREFETCH ISSUED TO LOWER LEVEL:          0  ACCURACY: -nan
ITLB TIMELY PREFETCHES:          0 LATE PREFETCHES: 0 DROPPED PREFETCHES: 0
ITLB PREFETCHES SAME FILL-ORIGIN LEVEL: 0 DIFFERENT FILL-ORIGIN LEVEL: 0
ITLB AVERAGE MISS LATENCY: 10.08 cycles
ITLB RQ	ACCESS:   39348311	FORWARD:          0	MERGED:    4957213	TO_CACHE:   34391098

DTLB TOTAL     ACCESS:   42025967  HIT:   40978162  MISS:    1047805  HIT %:    97.5068  MISS %:    2.49323   MPKI: 5.23902
DTLB LOAD TRANSLATION ACCESS:   42025967  HIT:   40978162  MISS:    1047805  HIT %:    97.5068  MISS %:    2.49323   MPKI: 5.23902
DTLB PREFETCH  REQUESTED:          0  ISSUED:          0  USEFUL:          0  USELESS:          0
DTLB USEFUL LOAD PREFETCHES:          0 PREFETCH ISSUED TO LOWER LEVEL:          0  ACCURACY: -nan
DTLB TIMELY PREFETCHES:          0 LATE PREFETCHES: 0 DROPPED PREFETCHES: 0
DTLB PREFETCHES SAME FILL-ORIGIN LEVEL: 0 DIFFERENT FILL-ORIGIN LEVEL: 0
DTLB AVERAGE MISS LATENCY: 14.5131 cycles
DTLB RQ	ACCESS:   55071514	FORWARD:          0	MERGED:   12980374	TO_CACHE:   42091140

STLB TOTAL     ACCESS:    9256717  HIT:    9168286  MISS:      88431  HIT %:    99.0447  MISS %:   0.955317   MPKI: 0.442155
STLB LOAD TRANSLATION ACCESS:    1938792  HIT:    1853733  MISS:      85059  HIT %:    95.6128  MISS %:    4.38722   MPKI: 0.425295
STLB TRANSLATION FROM L1D PREFETCHER ACCESS:    7317925  HIT:    7314553  MISS:       3372  HIT %:    99.9539  MISS %:  0.0460786   MPKI: 0.01686
STLB PREFETCH  REQUESTED:          0  ISSUED:          0  USEFUL:       2786  USELESS:        576
STLB USEFUL LOAD PREFETCHES:       2786 PREFETCH ISSUED TO LOWER LEVEL:          0  ACCURACY: inf
STLB TIMELY PREFETCHES:       2786 LATE PREFETCHES: 218 DROPPED PREFETCHES: 171751
STLB PREFETCHES SAME FILL-ORIGIN LEVEL: 0 DIFFERENT FILL-ORIGIN LEVEL: 0
STLB AVERAGE MISS LATENCY: 81.6325 cycles
STLB RQ	ACCESS:   10953869	FORWARD:          0	MERGED:    1524787	TO_CACHE:    9429082

STLB Hit, L1D data hit: 0
STLB Hit, L2C data hit: 0
STLB Hit, LLC data hit: 0
STLB Hit, LLC data miss: 0
STLB STLB hints to L2: 0
L1D TOTAL     ACCESS:   62717199  HIT:   60145491  MISS:    2571708  HIT %:    95.8995  MISS %:    4.10048   MPKI: 12.8585
L1D LOAD      ACCESS:   34032902  HIT:   32426720  MISS:    1606182  HIT %:    95.2805  MISS %:     4.7195   MPKI: 8.03091
L1D RFO       ACCESS:   19995953  HIT:   19269298  MISS:     726655  HIT %:     96.366  MISS %:    3.63401   MPKI: 3.63327
L1D PREFETCH  ACCESS:    8688344  HIT:    8449473  MISS:     238871  HIT %:    97.2507  MISS %:    2.74933   MPKI: 1.19435
AGUS PREFETCH L1 MISS: 0
L1D PREFETCH  REQUESTED:   19196489  ISSUED:   19195799  USEFUL:     122127  USELESS:     116711
L1D USEFUL LOAD PREFETCHES:     122127 PREFETCH ISSUED TO LOWER LEVEL:     291717  ACCURACY: 41.8649
L1D TIMELY PREFETCHES:     122127 LATE PREFETCHES: 52492 DROPPED PREFETCHES: 186051
L1D PREFETCHES SAME FILL-ORIGIN LEVEL: 291717 DIFFERENT FILL-ORIGIN LEVEL: 0
L1D AVERAGE MISS LATENCY: 6.7555e+06 cycles
L1D RQ	ACCESS:   46038982	FORWARD:          0	MERGED:   11595656	TO_CACHE:   34150042
L1D WQ	ACCESS:   21239484	FORWARD:     300332	MERGED:     318012	TO_CACHE:   20921472
L1D PQ	ACCESS:   10180722	FORWARD:          0	MERGED:    1158597	TO_CACHE:    9015077

L1D UNIQUE REGIONS ACCESSED: 0
L1D REGIONS CONFLICTS: 0
L1D Cross Page Prefetch Requests: 6896876
L1D Same Page Prefetch Requests: 4416410
L1D ROI Sum of L1D PQ occupancy: 131144434
L1D PREFETCHES PUSHED FROM L2C: 0
L1I TOTAL     ACCESS:   38621957  HIT:   33877852  MISS:    4744105  HIT %:    87.7166  MISS %:    12.2834   MPKI: 23.7205
L1I LOAD      ACCESS:   38621957  HIT:   33877852  MISS:    4744105  HIT %:    87.7166  MISS %:    12.2834   MPKI: 23.7205
L1I PREFETCH  REQUESTED:          0  ISSUED:          0  USEFUL:          0  USELESS:          0
L1I USEFUL LOAD PREFETCHES:          0 PREFETCH ISSUED TO LOWER LEVEL:          0  ACCURACY: -nan
L1I TIMELY PREFETCHES:          0 LATE PREFETCHES: 0 DROPPED PREFETCHES: 0
L1I PREFETCHES SAME FILL-ORIGIN LEVEL: 0 DIFFERENT FILL-ORIGIN LEVEL: 0
L1I AVERAGE MISS LATENCY: 23.7045 cycles
L1I RQ	ACCESS:   59225201	FORWARD:          0	MERGED:   19876890	TO_CACHE:   39348311

BTB TOTAL     ACCESS:   30738842  HIT:   24217545  MISS:    6521297  HIT %:    78.7848  MISS %:    21.2152   MPKI: 32.6065
BTB BRANCH_DIRECT_JUMP	ACCESS:    3651900  HIT:    3183732  MISS:     468168
BTB BRANCH_INDIRECT	ACCESS:   11989101  HIT:    9519360  MISS:    2469741
BTB BRANCH_CONDITIONAL	ACCESS:    8587084  HIT:    8036020  MISS:     551064
BTB BRANCH_DIRECT_CALL	ACCESS:    2662247  HIT:    1824351  MISS:     837896
BTB BRANCH_INDIRECT_CALL	ACCESS:     593188  HIT:     320085  MISS:     273103
BTB BRANCH_RETURN	ACCESS:    3255322  HIT:    1333997  MISS:    1921325
BTB BRANCH_OTHER ACCESS:          0  HIT:          0  MISS:          0

L2C TOTAL     ACCESS:    8949992  HIT:    6151272  MISS:    2798720  HIT %:    68.7294  MISS %:    31.2706   MPKI: 13.9936
L2C LOAD      ACCESS:    6297771  HIT:    4152792  MISS:    2144979  HIT %:    65.9407  MISS %:    34.0593   MPKI: 10.7249
L2C DATA LOAD MPKI: 3.53657
L2C INSTRUCTION LOAD MPKI: 7.18832
L2C RFO       ACCESS:     726301  HIT:     348243  MISS:     378058  HIT %:    47.9475  MISS %:    52.0525   MPKI: 1.89029
L2C PREFETCH  ACCESS:     291715  HIT:     175985  MISS:     115730  HIT %:    60.3277  MISS %:    39.6723   MPKI: 0.57865
AGUS PREFETCH L1 MISS: 0
L2C DATA PREFETCH MPKI: 0.57865
L2C INSTRUCTION PREFETCH MPKI: 0
L2C WRITEBACK ACCESS:    1233711  HIT:    1163001  MISS:      70710  HIT %:    94.2685  MISS %:    5.73149   MPKI: 0.35355
L2C LOAD TRANSLATION ACCESS:     134188  HIT:      65556  MISS:      68632  HIT %:    48.8538  MISS %:    51.1462   MPKI: 0.34316
L2C TRANSLATION FROM L1D PREFETCHER ACCESS:     266306  HIT:     245695  MISS:      20611  HIT %:    92.2604  MISS %:    7.73959   MPKI: 0.103055
L2C PREFETCH  REQUESTED:          0  ISSUED:          0  USEFUL:      20863  USELESS:     115187
L2C USEFUL LOAD PREFETCHES:      20863 PREFETCH ISSUED TO LOWER LEVEL:     115730  ACCURACY: 18.0273
L2C TIMELY PREFETCHES:      20863 LATE PREFETCHES: 0 DROPPED PREFETCHES: 0
L2C PREFETCHES SAME FILL-ORIGIN LEVEL: 0 DIFFERENT FILL-ORIGIN LEVEL: 0
L2C AVERAGE MISS LATENCY: 57.7928 cycles
L2C RQ	ACCESS:    7424590	FORWARD:          0	MERGED:          0	TO_CACHE:    7424566
L2C WQ	ACCESS:    1233711	FORWARD:         26	MERGED:          0	TO_CACHE:    1233711
L2C PQ	ACCESS:     291717	FORWARD:          0	MERGED:          0	TO_CACHE:     291715

L2C Instructions Evicting Data 568160
L2C Translations Evicting Data 51007
L2C Data Evicting Data 616313
L2C Instructions Evicting Instructions 835560
L2C Translations Evicting Instructions 34030
L2C Data Evicting Instructions 535940
L2C Instructions Evicting Translations 33945
L2C Translations Evicting Translations 4206
L2C Data Evicting Translations 48849
L2C Dense regions hint from L2: 0
PSCL5 TOTAL     ACCESS:     258877  HIT:     258877  MISS:          0  HIT %:        100  MISS %:          0   MPKI: 0
PSCL5 LOAD TRANSLATION ACCESS:      84841  HIT:      84841  MISS:          0  HIT %:        100  MISS %:          0   MPKI: 0
PSCL5 TRANSLATION FROM L1D PREFETCHER ACCESS:     174036  HIT:     174036  MISS:          0  HIT %:        100  MISS %:          0   MPKI: 0
PSCL5 PREFETCH  REQUESTED:          0  ISSUED:          0  USEFUL:          0  USELESS:          0
PSCL5 USEFUL LOAD PREFETCHES:          0 PREFETCH ISSUED TO LOWER LEVEL:          0  ACCURACY: -nan
PSCL5 TIMELY PREFETCHES:          0 LATE PREFETCHES: 0 DROPPED PREFETCHES: 0
PSCL5 PREFETCHES SAME FILL-ORIGIN LEVEL: 0 DIFFERENT FILL-ORIGIN LEVEL: 0

PSCL4 TOTAL     ACCESS:     243831  HIT:     243344  MISS:        487  HIT %:    99.8003  MISS %:   0.199729   MPKI: 0.002435
PSCL4 LOAD TRANSLATION ACCESS:      83551  HIT:      83064  MISS:        487  HIT %:    99.4171  MISS %:   0.582878   MPKI: 0.002435
PSCL4 TRANSLATION FROM L1D PREFETCHER ACCESS:     160280  HIT:     160280  MISS:          0  HIT %:        100  MISS %:          0   MPKI: 0
PSCL4 PREFETCH  REQUESTED:          0  ISSUED:          0  USEFUL:          0  USELESS:          0
PSCL4 USEFUL LOAD PREFETCHES:          0 PREFETCH ISSUED TO LOWER LEVEL:          0  ACCURACY: -nan
PSCL4 TIMELY PREFETCHES:          0 LATE PREFETCHES: 0 DROPPED PREFETCHES: 0
PSCL4 PREFETCHES SAME FILL-ORIGIN LEVEL: 0 DIFFERENT FILL-ORIGIN LEVEL: 0

PSCL3 TOTAL     ACCESS:     180020  HIT:     165407  MISS:      14613  HIT %:    91.8826  MISS %:    8.11743   MPKI: 0.073065
PSCL3 LOAD TRANSLATION ACCESS:      79737  HIT:      65124  MISS:      14613  HIT %:    81.6735  MISS %:    18.3265   MPKI: 0.073065
PSCL3 TRANSLATION FROM L1D PREFETCHER ACCESS:     100283  HIT:     100283  MISS:          0  HIT %:        100  MISS %:          0   MPKI: 0
PSCL3 PREFETCH  REQUESTED:          0  ISSUED:          0  USEFUL:          0  USELESS:          0
PSCL3 USEFUL LOAD PREFETCHES:          0 PREFETCH ISSUED TO LOWER LEVEL:          0  ACCURACY: -nan
PSCL3 TIMELY PREFETCHES:          0 LATE PREFETCHES: 0 DROPPED PREFETCHES: 0
PSCL3 PREFETCHES SAME FILL-ORIGIN LEVEL: 0 DIFFERENT FILL-ORIGIN LEVEL: 0

PSCL2 TOTAL     ACCESS:     115936  HIT:      78526  MISS:      37410  HIT %:    67.7322  MISS %:    32.2678   MPKI: 0.18705
PSCL2 LOAD TRANSLATION ACCESS:      86893  HIT:      49483  MISS:      37410  HIT %:     56.947  MISS %:     43.053   MPKI: 0.18705
PSCL2 TRANSLATION FROM L1D PREFETCHER ACCESS:      29043  HIT:      29043  MISS:          0  HIT %:        100  MISS %:          0   MPKI: 0
PSCL2 PREFETCH  REQUESTED:          0  ISSUED:          0  USEFUL:          0  USELESS:          0
PSCL2 USEFUL LOAD PREFETCHES:          0 PREFETCH ISSUED TO LOWER LEVEL:          0  ACCURACY: -nan
PSCL2 TIMELY PREFETCHES:          0 LATE PREFETCHES: 0 DROPPED PREFETCHES: 0
PSCL2 PREFETCHES SAME FILL-ORIGIN LEVEL: 0 DIFFERENT FILL-ORIGIN LEVEL: 0

LLC TOTAL     ACCESS:    3321970  HIT:    2899846  MISS:     422124  HIT %:     87.293  MISS %:     12.707   MPKI: 2.11062
LLC LOAD      ACCESS:    2144977  HIT:    1923426  MISS:     221551  HIT %:    89.6712  MISS %:    10.3288   MPKI: 1.10775
LLC RFO       ACCESS:     378054  HIT:     224658  MISS:     153396  HIT %:    59.4248  MISS %:    40.5752   MPKI: 0.76698
LLC PREFETCH  ACCESS:     115729  HIT:      89143  MISS:      26586  HIT %:    77.0274  MISS %:    22.9726   MPKI: 0.13293
AGUS PREFETCH L1 MISS: 0
LLC WRITEBACK ACCESS:     593967  HIT:     590657  MISS:       3310  HIT %:    99.4427  MISS %:    0.55727   MPKI: 0.01655
LLC LOAD TRANSLATION ACCESS:      68632  HIT:      53892  MISS:      14740  HIT %:    78.5231  MISS %:    21.4769   MPKI: 0.0737
LLC TRANSLATION FROM L1D PREFETCHER ACCESS:      20611  HIT:      18070  MISS:       2541  HIT %:    87.6716  MISS %:    12.3284   MPKI: 0.012705
LLC PREFETCH  REQUESTED:          0  ISSUED:          0  USEFUL:       2491  USELESS:      26288
LLC USEFUL LOAD PREFETCHES:       2491 PREFETCH ISSUED TO LOWER LEVEL:      26586  ACCURACY: 9.36959
LLC TIMELY PREFETCHES:       2491 LATE PREFETCHES: 0 DROPPED PREFETCHES: 0
LLC PREFETCHES SAME FILL-ORIGIN LEVEL: 0 DIFFERENT FILL-ORIGIN LEVEL: 0
LLC AVERAGE MISS LATENCY: 189.291 cycles
LLC RQ	ACCESS:    2612280	FORWARD:          0	MERGED:          0	TO_CACHE:    2612274
LLC WQ	ACCESS:     593967	FORWARD:          7	MERGED:          0	TO_CACHE:     593967
LLC PQ	ACCESS:     115730	FORWARD:          0	MERGED:          0	TO_CACHE:     115729

LLC Dense regions hint to LLC: 0

RAW hits: 2340098
Loads Generated: 48379080
Loads sent to L1D: 46038982
Stores Generated: 21239482
Stores sent to L1D: 21239484
Major fault: 0 Minor fault: 6400
Allocated PAGES: 6400
Completed 

DRAM Statistics
 CHANNEL 0
 RQ ROW_BUFFER_HIT:     101099  ROW_BUFFER_MISS:     317714
 DBUS_CONGESTED:        175
 WQ ROW_BUFFER_HIT:      40300  ROW_BUFFER_MISS:     212279  FULL:          0

 AVG_CONGESTED_CYCLE: 4
 All warmup complete: 2
Channel 0 Bank busy for read cycles: 0
Channel 0 Bank busy for write cycles: 0
Channel 0
Rank 0
0banks busy for read cycles: 418862607
0banks busy for write cycles: 108915
1banks busy for read cycles: 28071027
1banks busy for write cycles: 15960794
2banks busy for read cycles: 4803700
2banks busy for write cycles: 4046203
3banks busy for read cycles: 1040638
3banks busy for write cycles: 1522871
4banks busy for read cycles: 268065
4banks busy for write cycles: 623082
5banks busy for read cycles: 159457
5banks busy for write cycles: 296473
6banks busy for read cycles: 171443
6banks busy for write cycles: 179823
7banks busy for read cycles: 263981
7banks busy for write cycles: 229575
8banks busy for read cycles: 919630
8banks busy for write cycles: 1434633

CPU 0 Branch Prediction Accuracy: 99.6854% MPKI: 0.56232 Average ROB Occupancy at Mispredict: 39.7367
Branch types
NOT_BRANCH: 164252984 82.1265%
BRANCH_DIRECT_JUMP: 3651900 1.82595%
BRANCH_INDIRECT: 11989101 5.99455%
BRANCH_CONDITIONAL: 13594936 6.79747%
BRANCH_DIRECT_CALL: 2662247 1.33112%
BRANCH_INDIRECT_CALL: 593188 0.296594%
BRANCH_RETURN: 3255322 1.62766%
BRANCH_OTHER: 0 0%

DRAM PAGES: 1048576
Allocated PAGES: 6400
