
*** ChampSim Multicore Out-of-Order Simulator ***

Warmup Instructions: 50000000
Simulation Instructions: 200000000
Number of CPUs: 1
LLC sets: 2048
LLC ways: 16
Off-chip DRAM Size: 4096 MB Channels: 1 Width: 64-bit Data Rate: 6400 MT/s
CPU 0 runs traces/spec2k17/srv_50.champsimtrace.xz
.xz
BTB has LRU replacement policy
ITLB has LRU replacement policy
DTLB has LRU replacement policy
STLB has LRU replacement policy
L1I has LRU replacement policy
L1D has LRU replacement policy
Initialize SRRIP state for L2C
Initialize DRRIP state for LLC
Heartbeat CPU 0 instructions: 10000003 cycles: 2876674 heartbeat IPC: 3.47624 cumulative IPC: 3.47624 (Simulation time: 0 hr 0 min 25 sec) 
Heartbeat CPU 0 instructions: 20000002 cycles: 5737233 heartbeat IPC: 3.49582 cumulative IPC: 3.486 (Simulation time: 0 hr 0 min 50 sec) 
Heartbeat CPU 0 instructions: 30000003 cycles: 8567420 heartbeat IPC: 3.53334 cumulative IPC: 3.50164 (Simulation time: 0 hr 1 min 14 sec) 
*** Reached end of trace for Core: 0 Repeating trace: traces/spec2k17/srv_50.champsimtrace.xz
Heartbeat CPU 0 instructions: 40000000 cycles: 11429777 heartbeat IPC: 3.49362 cumulative IPC: 3.49963 (Simulation time: 0 hr 1 min 40 sec) 
Heartbeat CPU 0 instructions: 50000001 cycles: 14293849 heartbeat IPC: 3.49153 cumulative IPC: 3.49801 (Simulation time: 0 hr 2 min 4 sec) 

Warmup complete CPU 0 instructions: 50000001 cycles: 14293849 (Simulation time: 0 hr 2 min 4 sec) 

Heartbeat CPU 0 instructions: 60000002 cycles: 38276739 heartbeat IPC: 0.416964 cumulative IPC: 0.416964 (Simulation time: 0 hr 2 min 40 sec) 
*** Reached end of trace for Core: 0 Repeating trace: traces/spec2k17/srv_50.champsimtrace.xz
Heartbeat CPU 0 instructions: 70000002 cycles: 62955284 heartbeat IPC: 0.40521 cumulative IPC: 0.411003 (Simulation time: 0 hr 3 min 16 sec) 
Heartbeat CPU 0 instructions: 80000000 cycles: 89369639 heartbeat IPC: 0.378582 cumulative IPC: 0.399596 (Simulation time: 0 hr 3 min 53 sec) 
Heartbeat CPU 0 instructions: 90000001 cycles: 113691205 heartbeat IPC: 0.411158 cumulative IPC: 0.402425 (Simulation time: 0 hr 4 min 29 sec) 
*** Reached end of trace for Core: 0 Repeating trace: traces/spec2k17/srv_50.champsimtrace.xz
Heartbeat CPU 0 instructions: 100000002 cycles: 137795580 heartbeat IPC: 0.414862 cumulative IPC: 0.404853 (Simulation time: 0 hr 5 min 5 sec) 
Heartbeat CPU 0 instructions: 110000000 cycles: 164301985 heartbeat IPC: 0.377267 cumulative IPC: 0.399978 (Simulation time: 0 hr 5 min 42 sec) 
Heartbeat CPU 0 instructions: 120000001 cycles: 188492700 heartbeat IPC: 0.413382 cumulative IPC: 0.40184 (Simulation time: 0 hr 6 min 18 sec) 
*** Reached end of trace for Core: 0 Repeating trace: traces/spec2k17/srv_50.champsimtrace.xz
Heartbeat CPU 0 instructions: 130000000 cycles: 212499254 heartbeat IPC: 0.416553 cumulative IPC: 0.403622 (Simulation time: 0 hr 6 min 54 sec) 
Heartbeat CPU 0 instructions: 140000001 cycles: 237923014 heartbeat IPC: 0.393333 cumulative IPC: 0.402452 (Simulation time: 0 hr 7 min 31 sec) 
Heartbeat CPU 0 instructions: 150000003 cycles: 263273112 heartbeat IPC: 0.394476 cumulative IPC: 0.40164 (Simulation time: 0 hr 8 min 8 sec) 
*** Reached end of trace for Core: 0 Repeating trace: traces/spec2k17/srv_50.champsimtrace.xz
Heartbeat CPU 0 instructions: 160000000 cycles: 287224142 heartbeat IPC: 0.417518 cumulative IPC: 0.403033 (Simulation time: 0 hr 8 min 43 sec) 
Heartbeat CPU 0 instructions: 170000002 cycles: 312214255 heartbeat IPC: 0.400158 cumulative IPC: 0.402792 (Simulation time: 0 hr 9 min 20 sec) 
Heartbeat CPU 0 instructions: 180000003 cycles: 337954395 heartbeat IPC: 0.388498 cumulative IPC: 0.401655 (Simulation time: 0 hr 9 min 57 sec) 
*** Reached end of trace for Core: 0 Repeating trace: traces/spec2k17/srv_50.champsimtrace.xz
Heartbeat CPU 0 instructions: 190000001 cycles: 362064082 heartbeat IPC: 0.414771 cumulative IPC: 0.402565 (Simulation time: 0 hr 10 min 33 sec) 
Heartbeat CPU 0 instructions: 200000002 cycles: 387528791 heartbeat IPC: 0.3927 cumulative IPC: 0.401892 (Simulation time: 0 hr 11 min 10 sec) 
Heartbeat CPU 0 instructions: 210000001 cycles: 411768112 heartbeat IPC: 0.412553 cumulative IPC: 0.402542 (Simulation time: 0 hr 11 min 47 sec) 
*** Reached end of trace for Core: 0 Repeating trace: traces/spec2k17/srv_50.champsimtrace.xz
Heartbeat CPU 0 instructions: 220000000 cycles: 435602106 heartbeat IPC: 0.419569 cumulative IPC: 0.403505 (Simulation time: 0 hr 12 min 24 sec) 
Heartbeat CPU 0 instructions: 230000000 cycles: 462182233 heartbeat IPC: 0.376221 cumulative IPC: 0.401886 (Simulation time: 0 hr 13 min 2 sec) 
Heartbeat CPU 0 instructions: 240000000 cycles: 486936653 heartbeat IPC: 0.403968 cumulative IPC: 0.401995 (Simulation time: 0 hr 13 min 39 sec) 
*** Reached end of trace for Core: 0 Repeating trace: traces/spec2k17/srv_50.champsimtrace.xz
Heartbeat CPU 0 instructions: 250000000 cycles: 510263005 heartbeat IPC: 0.4287 cumulative IPC: 0.403251 (Simulation time: 0 hr 14 min 16 sec) 
Finished CPU 0 instructions: 200000003 cycles: 495969157 cumulative IPC: 0.403251 (Simulation time: 0 hr 14 min 16 sec) 

ChampSim completed all CPUs

Region of Interest Statistics

CPU 0 cumulative IPC: 0.403251 instructions: 200000003 cycles: 495969157
ITLB TOTAL     ACCESS:   34012905  HIT:   33053397  MISS:     959508  HIT %:     97.179  MISS %:    2.82101   MPKI: 4.79754
ITLB LOAD TRANSLATION ACCESS:   34012905  HIT:   33053397  MISS:     959508  HIT %:     97.179  MISS %:    2.82101   MPKI: 4.79754
ITLB PREFETCH  REQUESTED:          0  ISSUED:          0  USEFUL:          0  USELESS:          0
ITLB USEFUL LOAD PREFETCHES:          0 PREFETCH ISSUED TO LOWER LEVEL:          0  ACCURACY: -nan
ITLB TIMELY PREFETCHES:          0 LATE PREFETCHES: 0 DROPPED PREFETCHES: 0
ITLB PREFETCHES SAME FILL-ORIGIN LEVEL: 0 DIFFERENT FILL-ORIGIN LEVEL: 0
ITLB AVERAGE MISS LATENCY: 10.1775 cycles
ITLB RQ	ACCESS:   39260329	FORWARD:          0	MERGED:    4987547	TO_CACHE:   34272782

DTLB TOTAL     ACCESS:   41595664  HIT:   40590704  MISS:    1004960  HIT %:     97.584  MISS %:    2.41602   MPKI: 5.0248
DTLB LOAD TRANSLATION ACCESS:   41595664  HIT:   40590704  MISS:    1004960  HIT %:     97.584  MISS %:    2.41602   MPKI: 5.0248
DTLB PREFETCH  REQUESTED:          0  ISSUED:          0  USEFUL:          0  USELESS:          0
DTLB USEFUL LOAD PREFETCHES:          0 PREFETCH ISSUED TO LOWER LEVEL:          0  ACCURACY: -nan
DTLB TIMELY PREFETCHES:          0 LATE PREFETCHES: 0 DROPPED PREFETCHES: 0
DTLB PREFETCHES SAME FILL-ORIGIN LEVEL: 0 DIFFERENT FILL-ORIGIN LEVEL: 0
DTLB AVERAGE MISS LATENCY: 14.7759 cycles
DTLB RQ	ACCESS:   54452604	FORWARD:          0	MERGED:   12783674	TO_CACHE:   41668930

STLB TOTAL     ACCESS:    8695818  HIT:    8605757  MISS:      90061  HIT %:    98.9643  MISS %:    1.03568   MPKI: 0.450305
STLB LOAD TRANSLATION ACCESS:    1964468  HIT:    1878125  MISS:      86343  HIT %:    95.6048  MISS %:    4.39524   MPKI: 0.431715
STLB TRANSLATION FROM L1D PREFETCHER ACCESS:    6731350  HIT:    6727632  MISS:       3718  HIT %:    99.9448  MISS %:  0.0552341   MPKI: 0.01859
STLB PREFETCH  REQUESTED:          0  ISSUED:          0  USEFUL:       2855  USELESS:        860
STLB USEFUL LOAD PREFETCHES:       2855 PREFETCH ISSUED TO LOWER LEVEL:          0  ACCURACY: inf
STLB TIMELY PREFETCHES:       2855 LATE PREFETCHES: 321 DROPPED PREFETCHES: 140560
STLB PREFETCHES SAME FILL-ORIGIN LEVEL: 0 DIFFERENT FILL-ORIGIN LEVEL: 0
STLB AVERAGE MISS LATENCY: 82.0873 cycles
STLB RQ	ACCESS:   10385128	FORWARD:          0	MERGED:    1548233	TO_CACHE:    8836895

STLB Hit, L1D data hit: 0
STLB Hit, L2C data hit: 0
STLB Hit, LLC data hit: 0
STLB Hit, LLC data miss: 0
STLB STLB hints to L2: 0
L1D TOTAL     ACCESS:   61382872  HIT:   58592341  MISS:    2790531  HIT %:    95.4539  MISS %:    4.54611   MPKI: 13.9527
L1D LOAD      ACCESS:   34611811  HIT:   32892538  MISS:    1719273  HIT %:    95.0327  MISS %:     4.9673   MPKI: 8.59636
L1D RFO       ACCESS:   18673704  HIT:   17857739  MISS:     815965  HIT %:    95.6304  MISS %:    4.36959   MPKI: 4.07982
L1D PREFETCH  ACCESS:    8097357  HIT:    7842064  MISS:     255293  HIT %:    96.8472  MISS %:    3.15279   MPKI: 1.27646
AGUS PREFETCH L1 MISS: 0
L1D PREFETCH  REQUESTED:   18001899  ISSUED:   18001241  USEFUL:     143700  USELESS:     111577
L1D USEFUL LOAD PREFETCHES:     143700 PREFETCH ISSUED TO LOWER LEVEL:     320105  ACCURACY: 44.8915
L1D TIMELY PREFETCHES:     143700 LATE PREFETCHES: 64484 DROPPED PREFETCHES: 156514
L1D PREFETCHES SAME FILL-ORIGIN LEVEL: 320105 DIFFERENT FILL-ORIGIN LEVEL: 0
L1D AVERAGE MISS LATENCY: 7.94201e+06 cycles
L1D RQ	ACCESS:   46209411	FORWARD:          0	MERGED:   11160938	TO_CACHE:   34734791
L1D WQ	ACCESS:   20039997	FORWARD:     318824	MERGED:     322184	TO_CACHE:   19717813
L1D PQ	ACCESS:    9580582	FORWARD:          0	MERGED:    1154781	TO_CACHE:    8420659

L1D UNIQUE REGIONS ACCESSED: 0
L1D REGIONS CONFLICTS: 0
L1D Cross Page Prefetch Requests: 5935361
L1D Same Page Prefetch Requests: 4737761
L1D ROI Sum of L1D PQ occupancy: 123455588
L1D PREFETCHES PUSHED FROM L2C: 0
L1I TOTAL     ACCESS:   38481909  HIT:   33374091  MISS:    5107818  HIT %:    86.7267  MISS %:    13.2733   MPKI: 25.5391
L1I LOAD      ACCESS:   38481909  HIT:   33374091  MISS:    5107818  HIT %:    86.7267  MISS %:    13.2733   MPKI: 25.5391
L1I PREFETCH  REQUESTED:          0  ISSUED:          0  USEFUL:          0  USELESS:          0
L1I USEFUL LOAD PREFETCHES:          0 PREFETCH ISSUED TO LOWER LEVEL:          0  ACCURACY: -nan
L1I TIMELY PREFETCHES:          0 LATE PREFETCHES: 0 DROPPED PREFETCHES: 0
L1I PREFETCHES SAME FILL-ORIGIN LEVEL: 0 DIFFERENT FILL-ORIGIN LEVEL: 0
L1I AVERAGE MISS LATENCY: 24.0897 cycles
L1I RQ	ACCESS:   58594597	FORWARD:          0	MERGED:   19334268	TO_CACHE:   39260329

BTB TOTAL     ACCESS:   30370697  HIT:   23500645  MISS:    6870052  HIT %:    77.3793  MISS %:    22.6207   MPKI: 34.3503
BTB BRANCH_DIRECT_JUMP	ACCESS:    3828094  HIT:    3320175  MISS:     507919
BTB BRANCH_INDIRECT	ACCESS:   11538875  HIT:    8901928  MISS:    2636947
BTB BRANCH_CONDITIONAL	ACCESS:    8796378  HIT:    8197618  MISS:     598760
BTB BRANCH_DIRECT_CALL	ACCESS:    2543553  HIT:    1630776  MISS:     912777
BTB BRANCH_INDIRECT_CALL	ACCESS:     560087  HIT:     266833  MISS:     293254
BTB BRANCH_RETURN	ACCESS:    3103710  HIT:    1183315  MISS:    1920395
BTB BRANCH_OTHER ACCESS:          0  HIT:          0  MISS:          0

L2C TOTAL     ACCESS:    9648196  HIT:    6536083  MISS:    3112113  HIT %:    67.7441  MISS %:    32.2559   MPKI: 15.5606
L2C LOAD      ACCESS:    6762597  HIT:    4389420  MISS:    2373177  HIT %:    64.9073  MISS %:    35.0927   MPKI: 11.8659
L2C DATA LOAD MPKI: 3.73712
L2C INSTRUCTION LOAD MPKI: 8.12876
L2C RFO       ACCESS:     815620  HIT:     378391  MISS:     437229  HIT %:    46.3931  MISS %:    53.6069   MPKI: 2.18614
L2C PREFETCH  ACCESS:     320104  HIT:     191752  MISS:     128352  HIT %:     59.903  MISS %:     40.097   MPKI: 0.64176
AGUS PREFETCH L1 MISS: 0
L2C DATA PREFETCH MPKI: 0.64176
L2C INSTRUCTION PREFETCH MPKI: 0
L2C WRITEBACK ACCESS:    1348173  HIT:    1274481  MISS:      73692  HIT %:    94.5339  MISS %:    5.46606   MPKI: 0.36846
L2C LOAD TRANSLATION ACCESS:     137402  HIT:      59853  MISS:      77549  HIT %:    43.5605  MISS %:    56.4395   MPKI: 0.387745
L2C TRANSLATION FROM L1D PREFETCHER ACCESS:     264300  HIT:     242186  MISS:      22114  HIT %:     91.633  MISS %:    8.36701   MPKI: 0.11057
L2C PREFETCH  REQUESTED:          0  ISSUED:          0  USEFUL:      22307  USELESS:     128098
L2C USEFUL LOAD PREFETCHES:      22307 PREFETCH ISSUED TO LOWER LEVEL:     128352  ACCURACY: 17.3795
L2C TIMELY PREFETCHES:      22307 LATE PREFETCHES: 0 DROPPED PREFETCHES: 0
L2C PREFETCHES SAME FILL-ORIGIN LEVEL: 0 DIFFERENT FILL-ORIGIN LEVEL: 0
L2C AVERAGE MISS LATENCY: 61.5007 cycles
L2C RQ	ACCESS:    7979948	FORWARD:          0	MERGED:          0	TO_CACHE:    7979920
L2C WQ	ACCESS:    1348174	FORWARD:         29	MERGED:          0	TO_CACHE:    1348174
L2C PQ	ACCESS:     320105	FORWARD:          0	MERGED:          0	TO_CACHE:     320104

L2C Instructions Evicting Data 620567
L2C Translations Evicting Data 53580
L2C Data Evicting Data 673832
L2C Instructions Evicting Instructions 963199
L2C Translations Evicting Instructions 42013
L2C Data Evicting Instructions 588291
L2C Instructions Evicting Translations 41987
L2C Translations Evicting Translations 4070
L2C Data Evicting Translations 50882
L2C Dense regions hint from L2: 0
PSCL5 TOTAL     ACCESS:     229645  HIT:     229645  MISS:          0  HIT %:        100  MISS %:          0   MPKI: 0
PSCL5 LOAD TRANSLATION ACCESS:      86022  HIT:      86022  MISS:          0  HIT %:        100  MISS %:          0   MPKI: 0
PSCL5 TRANSLATION FROM L1D PREFETCHER ACCESS:     143623  HIT:     143623  MISS:          0  HIT %:        100  MISS %:          0   MPKI: 0
PSCL5 PREFETCH  REQUESTED:          0  ISSUED:          0  USEFUL:          0  USELESS:          0
PSCL5 USEFUL LOAD PREFETCHES:          0 PREFETCH ISSUED TO LOWER LEVEL:          0  ACCURACY: -nan
PSCL5 TIMELY PREFETCHES:          0 LATE PREFETCHES: 0 DROPPED PREFETCHES: 0
PSCL5 PREFETCHES SAME FILL-ORIGIN LEVEL: 0 DIFFERENT FILL-ORIGIN LEVEL: 0

PSCL4 TOTAL     ACCESS:     222689  HIT:     221907  MISS:        782  HIT %:    99.6488  MISS %:   0.351162   MPKI: 0.00391
PSCL4 LOAD TRANSLATION ACCESS:      84978  HIT:      84196  MISS:        782  HIT %:    99.0798  MISS %:   0.920238   MPKI: 0.00391
PSCL4 TRANSLATION FROM L1D PREFETCHER ACCESS:     137711  HIT:     137711  MISS:          0  HIT %:        100  MISS %:          0   MPKI: 0
PSCL4 PREFETCH  REQUESTED:          0  ISSUED:          0  USEFUL:          0  USELESS:          0
PSCL4 USEFUL LOAD PREFETCHES:          0 PREFETCH ISSUED TO LOWER LEVEL:          0  ACCURACY: -nan
PSCL4 TIMELY PREFETCHES:          0 LATE PREFETCHES: 0 DROPPED PREFETCHES: 0
PSCL4 PREFETCHES SAME FILL-ORIGIN LEVEL: 0 DIFFERENT FILL-ORIGIN LEVEL: 0

PSCL3 TOTAL     ACCESS:     164761  HIT:     149581  MISS:      15180  HIT %:    90.7867  MISS %:    9.21335   MPKI: 0.0759
PSCL3 LOAD TRANSLATION ACCESS:      81211  HIT:      66031  MISS:      15180  HIT %:     81.308  MISS %:     18.692   MPKI: 0.0759
PSCL3 TRANSLATION FROM L1D PREFETCHER ACCESS:      83550  HIT:      83550  MISS:          0  HIT %:        100  MISS %:          0   MPKI: 0
PSCL3 PREFETCH  REQUESTED:          0  ISSUED:          0  USEFUL:          0  USELESS:          0
PSCL3 USEFUL LOAD PREFETCHES:          0 PREFETCH ISSUED TO LOWER LEVEL:          0  ACCURACY: -nan
PSCL3 TIMELY PREFETCHES:          0 LATE PREFETCHES: 0 DROPPED PREFETCHES: 0
PSCL3 PREFETCHES SAME FILL-ORIGIN LEVEL: 0 DIFFERENT FILL-ORIGIN LEVEL: 0

PSCL2 TOTAL     ACCESS:     123515  HIT:      84778  MISS:      38737  HIT %:    68.6378  MISS %:    31.3622   MPKI: 0.193685
PSCL2 LOAD TRANSLATION ACCESS:      88186  HIT:      49449  MISS:      38737  HIT %:    56.0735  MISS %:    43.9265   MPKI: 0.193685
PSCL2 TRANSLATION FROM L1D PREFETCHER ACCESS:      35329  HIT:      35329  MISS:          0  HIT %:        100  MISS %:          0   MPKI: 0
PSCL2 PREFETCH  REQUESTED:          0  ISSUED:          0  USEFUL:          0  USELESS:          0
PSCL2 USEFUL LOAD PREFETCHES:          0 PREFETCH ISSUED TO LOWER LEVEL:          0  ACCURACY: -nan
PSCL2 TIMELY PREFETCHES:          0 LATE PREFETCHES: 0 DROPPED PREFETCHES: 0
PSCL2 PREFETCHES SAME FILL-ORIGIN LEVEL: 0 DIFFERENT FILL-ORIGIN LEVEL: 0

LLC TOTAL     ACCESS:    3700024  HIT:    3210836  MISS:     489188  HIT %:    86.7788  MISS %:    13.2212   MPKI: 2.44594
LLC LOAD      ACCESS:    2373175  HIT:    2131949  MISS:     241226  HIT %:    89.8353  MISS %:    10.1647   MPKI: 1.20613
LLC RFO       ACCESS:     437229  HIT:     239267  MISS:     197962  HIT %:    54.7235  MISS %:    45.2765   MPKI: 0.98981
LLC PREFETCH  ACCESS:     128344  HIT:      97533  MISS:      30811  HIT %:    75.9934  MISS %:    24.0066   MPKI: 0.154055
AGUS PREFETCH L1 MISS: 0
LLC WRITEBACK ACCESS:     661613  HIT:     658432  MISS:       3181  HIT %:    99.5192  MISS %:   0.480795   MPKI: 0.015905
LLC LOAD TRANSLATION ACCESS:      77549  HIT:      63581  MISS:      13968  HIT %:    81.9882  MISS %:    18.0118   MPKI: 0.06984
LLC TRANSLATION FROM L1D PREFETCHER ACCESS:      22114  HIT:      20074  MISS:       2040  HIT %:    90.7751  MISS %:    9.22493   MPKI: 0.0102
LLC PREFETCH  REQUESTED:          0  ISSUED:          0  USEFUL:       2401  USELESS:      30038
LLC USEFUL LOAD PREFETCHES:       2401 PREFETCH ISSUED TO LOWER LEVEL:      30811  ACCURACY: 7.79267
LLC TIMELY PREFETCHES:       2401 LATE PREFETCHES: 0 DROPPED PREFETCHES: 0
LLC PREFETCHES SAME FILL-ORIGIN LEVEL: 0 DIFFERENT FILL-ORIGIN LEVEL: 0
LLC AVERAGE MISS LATENCY: 204.917 cycles
LLC RQ	ACCESS:    2910069	FORWARD:          0	MERGED:          0	TO_CACHE:    2910067
LLC WQ	ACCESS:     661613	FORWARD:         10	MERGED:          0	TO_CACHE:     661613
LLC PQ	ACCESS:     128352	FORWARD:          0	MERGED:          0	TO_CACHE:     128344

LLC Dense regions hint to LLC: 0

RAW hits: 2065487
Loads Generated: 48274898
Loads sent to L1D: 46209411
Stores Generated: 20039989
Stores sent to L1D: 20039997
Major fault: 0 Minor fault: 6225
Allocated PAGES: 6225
Completed 

DRAM Statistics
 CHANNEL 0
 RQ ROW_BUFFER_HIT:     130891  ROW_BUFFER_MISS:     355116
 DBUS_CONGESTED:        147
 WQ ROW_BUFFER_HIT:      46001  ROW_BUFFER_MISS:     251273  FULL:          0

 AVG_CONGESTED_CYCLE: 4
 All warmup complete: 2
Channel 0 Bank busy for read cycles: 0
Channel 0 Bank busy for write cycles: 0
Channel 0
Rank 0
0banks busy for read cycles: 432973941
0banks busy for write cycles: 114478
1banks busy for read cycles: 28437708
1banks busy for write cycles: 16654392
2banks busy for read cycles: 4761410
2banks busy for write cycles: 4104733
3banks busy for read cycles: 1079423
3banks busy for write cycles: 1464401
4banks busy for read cycles: 315043
4banks busy for write cycles: 588860
5banks busy for read cycles: 206974
5banks busy for write cycles: 284876
6banks busy for read cycles: 248275
6banks busy for write cycles: 187494
7banks busy for read cycles: 396318
7banks busy for write cycles: 286189
8banks busy for read cycles: 1543275
8banks busy for write cycles: 2321368

CPU 0 Branch Prediction Accuracy: 99.6928% MPKI: 0.541945 Average ROB Occupancy at Mispredict: 41.8122
Branch types
NOT_BRANCH: 164715956 82.358%
BRANCH_DIRECT_JUMP: 3828094 1.91405%
BRANCH_INDIRECT: 11538875 5.76944%
BRANCH_CONDITIONAL: 13709397 6.8547%
BRANCH_DIRECT_CALL: 2543553 1.27178%
BRANCH_INDIRECT_CALL: 560087 0.280043%
BRANCH_RETURN: 3103710 1.55185%
BRANCH_OTHER: 0 0%

DRAM PAGES: 1048576
Allocated PAGES: 6225
