
*** ChampSim Multicore Out-of-Order Simulator ***

Warmup Instructions: 50000000
Simulation Instructions: 200000000
Number of CPUs: 1
LLC sets: 2048
LLC ways: 16
Off-chip DRAM Size: 4096 MB Channels: 1 Width: 64-bit Data Rate: 6400 MT/s
CPU 0 runs traces/spec2k17/srv_59.champsimtrace.xz
.xz
BTB has LRU replacement policy
ITLB has LRU replacement policy
DTLB has LRU replacement policy
STLB has LRU replacement policy
L1I has LRU replacement policy
L1D has LRU replacement policy
Initialize SRRIP state for L2C
Initialize DRRIP state for LLC
Heartbeat CPU 0 instructions: 10000001 cycles: 2965251 heartbeat IPC: 3.3724 cumulative IPC: 3.3724 (Simulation time: 0 hr 0 min 30 sec) 
Heartbeat CPU 0 instructions: 20000003 cycles: 5798594 heartbeat IPC: 3.5294 cumulative IPC: 3.44911 (Simulation time: 0 hr 0 min 57 sec) 
Heartbeat CPU 0 instructions: 30000002 cycles: 8589657 heartbeat IPC: 3.58286 cumulative IPC: 3.49257 (Simulation time: 0 hr 1 min 24 sec) 
*** Reached end of trace for Core: 0 Repeating trace: traces/spec2k17/srv_59.champsimtrace.xz
Heartbeat CPU 0 instructions: 40000000 cycles: 11531897 heartbeat IPC: 3.39877 cumulative IPC: 3.46864 (Simulation time: 0 hr 1 min 54 sec) 
Heartbeat CPU 0 instructions: 50000003 cycles: 14392976 heartbeat IPC: 3.49519 cumulative IPC: 3.47392 (Simulation time: 0 hr 2 min 22 sec) 

Warmup complete CPU 0 instructions: 50000003 cycles: 14392976 (Simulation time: 0 hr 2 min 22 sec) 

Heartbeat CPU 0 instructions: 60000001 cycles: 33195314 heartbeat IPC: 0.531849 cumulative IPC: 0.531849 (Simulation time: 0 hr 2 min 56 sec) 
*** Reached end of trace for Core: 0 Repeating trace: traces/spec2k17/srv_59.champsimtrace.xz
Heartbeat CPU 0 instructions: 70000002 cycles: 47065099 heartbeat IPC: 0.720992 cumulative IPC: 0.612143 (Simulation time: 0 hr 3 min 32 sec) 
Heartbeat CPU 0 instructions: 80000001 cycles: 62946758 heartbeat IPC: 0.629657 cumulative IPC: 0.617872 (Simulation time: 0 hr 4 min 7 sec) 
Heartbeat CPU 0 instructions: 90000000 cycles: 81522078 heartbeat IPC: 0.538349 cumulative IPC: 0.595867 (Simulation time: 0 hr 4 min 39 sec) 
*** Reached end of trace for Core: 0 Repeating trace: traces/spec2k17/srv_59.champsimtrace.xz
Heartbeat CPU 0 instructions: 100000001 cycles: 96505076 heartbeat IPC: 0.667423 cumulative IPC: 0.608924 (Simulation time: 0 hr 5 min 13 sec) 
Heartbeat CPU 0 instructions: 110000000 cycles: 111353627 heartbeat IPC: 0.673466 cumulative IPC: 0.618808 (Simulation time: 0 hr 5 min 46 sec) 
Heartbeat CPU 0 instructions: 120000000 cycles: 130164566 heartbeat IPC: 0.531606 cumulative IPC: 0.604639 (Simulation time: 0 hr 6 min 18 sec) 
*** Reached end of trace for Core: 0 Repeating trace: traces/spec2k17/srv_59.champsimtrace.xz
Heartbeat CPU 0 instructions: 130000001 cycles: 145955561 heartbeat IPC: 0.633272 cumulative IPC: 0.608076 (Simulation time: 0 hr 6 min 51 sec) 
Heartbeat CPU 0 instructions: 140000003 cycles: 159936279 heartbeat IPC: 0.715271 cumulative IPC: 0.618373 (Simulation time: 0 hr 7 min 25 sec) 
Heartbeat CPU 0 instructions: 150000003 cycles: 178557587 heartbeat IPC: 0.537019 cumulative IPC: 0.609145 (Simulation time: 0 hr 7 min 57 sec) 
*** Reached end of trace for Core: 0 Repeating trace: traces/spec2k17/srv_59.champsimtrace.xz
Heartbeat CPU 0 instructions: 160000000 cycles: 195404974 heartbeat IPC: 0.593564 cumulative IPC: 0.607695 (Simulation time: 0 hr 8 min 30 sec) 
Heartbeat CPU 0 instructions: 170000000 cycles: 208274000 heartbeat IPC: 0.77706 cumulative IPC: 0.618936 (Simulation time: 0 hr 9 min 5 sec) 
Heartbeat CPU 0 instructions: 180000000 cycles: 227030016 heartbeat IPC: 0.533162 cumulative IPC: 0.61137 (Simulation time: 0 hr 9 min 38 sec) 
*** Reached end of trace for Core: 0 Repeating trace: traces/spec2k17/srv_59.champsimtrace.xz
Heartbeat CPU 0 instructions: 190000000 cycles: 244828805 heartbeat IPC: 0.561836 cumulative IPC: 0.607544 (Simulation time: 0 hr 10 min 10 sec) 
Heartbeat CPU 0 instructions: 200000000 cycles: 256668899 heartbeat IPC: 0.844588 cumulative IPC: 0.619129 (Simulation time: 0 hr 10 min 45 sec) 
Heartbeat CPU 0 instructions: 210000002 cycles: 275455638 heartbeat IPC: 0.53229 cumulative IPC: 0.61288 (Simulation time: 0 hr 11 min 18 sec) 
*** Reached end of trace for Core: 0 Repeating trace: traces/spec2k17/srv_59.champsimtrace.xz
Heartbeat CPU 0 instructions: 220000000 cycles: 294080785 heartbeat IPC: 0.536908 cumulative IPC: 0.607821 (Simulation time: 0 hr 11 min 51 sec) 
Heartbeat CPU 0 instructions: 230000003 cycles: 305176763 heartbeat IPC: 0.901228 cumulative IPC: 0.619017 (Simulation time: 0 hr 12 min 26 sec) 
Heartbeat CPU 0 instructions: 240000000 cycles: 323840893 heartbeat IPC: 0.535787 cumulative IPC: 0.613997 (Simulation time: 0 hr 12 min 58 sec) 
*** Reached end of trace for Core: 0 Repeating trace: traces/spec2k17/srv_59.champsimtrace.xz
Heartbeat CPU 0 instructions: 250000001 cycles: 342402767 heartbeat IPC: 0.538739 cumulative IPC: 0.609738 (Simulation time: 0 hr 13 min 30 sec) 
Finished CPU 0 instructions: 200000000 cycles: 328009792 cumulative IPC: 0.609738 (Simulation time: 0 hr 13 min 30 sec) 

ChampSim completed all CPUs

Region of Interest Statistics

CPU 0 cumulative IPC: 0.609738 instructions: 200000000 cycles: 328009792
ITLB TOTAL     ACCESS:   36236136  HIT:   35634718  MISS:     601418  HIT %:    98.3403  MISS %:    1.65972   MPKI: 3.00709
ITLB LOAD TRANSLATION ACCESS:   36236136  HIT:   35634718  MISS:     601418  HIT %:    98.3403  MISS %:    1.65972   MPKI: 3.00709
ITLB PREFETCH  REQUESTED:          0  ISSUED:          0  USEFUL:          0  USELESS:          0
ITLB USEFUL LOAD PREFETCHES:          0 PREFETCH ISSUED TO LOWER LEVEL:          0  ACCURACY: -nan
ITLB TIMELY PREFETCHES:          0 LATE PREFETCHES: 0 DROPPED PREFETCHES: 0
ITLB PREFETCHES SAME FILL-ORIGIN LEVEL: 0 DIFFERENT FILL-ORIGIN LEVEL: 0
ITLB AVERAGE MISS LATENCY: 9.04693 cycles
ITLB RQ	ACCESS:   40786606	FORWARD:          0	MERGED:    4356848	TO_CACHE:   36429758

DTLB TOTAL     ACCESS:   42640749  HIT:   41935436  MISS:     705313  HIT %:    98.3459  MISS %:    1.65408   MPKI: 3.52657
DTLB LOAD TRANSLATION ACCESS:   42640749  HIT:   41935436  MISS:     705313  HIT %:    98.3459  MISS %:    1.65408   MPKI: 3.52657
DTLB PREFETCH  REQUESTED:          0  ISSUED:          0  USEFUL:          0  USELESS:          0
DTLB USEFUL LOAD PREFETCHES:          0 PREFETCH ISSUED TO LOWER LEVEL:          0  ACCURACY: -nan
DTLB TIMELY PREFETCHES:          0 LATE PREFETCHES: 0 DROPPED PREFETCHES: 0
DTLB PREFETCHES SAME FILL-ORIGIN LEVEL: 0 DIFFERENT FILL-ORIGIN LEVEL: 0
DTLB AVERAGE MISS LATENCY: 8.57332 cycles
DTLB RQ	ACCESS:   58409811	FORWARD:          0	MERGED:   15737939	TO_CACHE:   42671872

STLB TOTAL     ACCESS:   17638499  HIT:   17637728  MISS:        771  HIT %:    99.9956  MISS %: 0.00437112   MPKI: 0.003855
STLB LOAD TRANSLATION ACCESS:    1306731  HIT:    1305974  MISS:        757  HIT %:    99.9421  MISS %:  0.0579308   MPKI: 0.003785
STLB TRANSLATION FROM L1D PREFETCHER ACCESS:   16331768  HIT:   16331754  MISS:         14  HIT %:    99.9999  MISS %: 8.57225e-05   MPKI: 7e-05
STLB PREFETCH  REQUESTED:          0  ISSUED:          0  USEFUL:          7  USELESS:          7
STLB USEFUL LOAD PREFETCHES:          7 PREFETCH ISSUED TO LOWER LEVEL:          0  ACCURACY: inf
STLB TIMELY PREFETCHES:          7 LATE PREFETCHES: 0 DROPPED PREFETCHES: 764731
STLB PREFETCHES SAME FILL-ORIGIN LEVEL: 0 DIFFERENT FILL-ORIGIN LEVEL: 0
STLB AVERAGE MISS LATENCY: 65.2153 cycles
STLB RQ	ACCESS:   22519447	FORWARD:          0	MERGED:    4113448	TO_CACHE:   18405999

STLB Hit, L1D data hit: 0
STLB Hit, L2C data hit: 0
STLB Hit, LLC data hit: 0
STLB Hit, LLC data miss: 0
STLB STLB hints to L2: 0
L1D TOTAL     ACCESS:   78325593  HIT:   77100629  MISS:    1224964  HIT %:    98.4361  MISS %:    1.56394   MPKI: 6.12482
L1D LOAD      ACCESS:   37321816  HIT:   36566695  MISS:     755121  HIT %:    97.9767  MISS %:    2.02327   MPKI: 3.77561
L1D RFO       ACCESS:   20685020  HIT:   20384182  MISS:     300838  HIT %:    98.5456  MISS %:    1.45438   MPKI: 1.50419
L1D PREFETCH  ACCESS:   20318757  HIT:   20149752  MISS:     169005  HIT %:    99.1682  MISS %:   0.831768   MPKI: 0.845025
AGUS PREFETCH L1 MISS: 0
L1D PREFETCH  REQUESTED:   44466922  ISSUED:   44436974  USEFUL:      55460  USELESS:     113476
L1D USEFUL LOAD PREFETCHES:      55460 PREFETCH ISSUED TO LOWER LEVEL:     196556  ACCURACY: 28.2159
L1D TIMELY PREFETCHES:      55460 LATE PREFETCHES: 27408 DROPPED PREFETCHES: 817034
L1D PREFETCHES SAME FILL-ORIGIN LEVEL: 196556 DIFFERENT FILL-ORIGIN LEVEL: 0
L1D AVERAGE MISS LATENCY: 4.92042e+06 cycles
L1D RQ	ACCESS:   52188921	FORWARD:          0	MERGED:   14615831	TO_CACHE:   37352635
L1D WQ	ACCESS:   21284228	FORWARD:     258037	MERGED:     227052	TO_CACHE:   21057176
L1D PQ	ACCESS:   23224258	FORWARD:          0	MERGED:    1973960	TO_CACHE:   21212716

L1D UNIQUE REGIONS ACCESSED: 0
L1D REGIONS CONFLICTS: 0
L1D Cross Page Prefetch Requests: 19311781
L1D Same Page Prefetch Requests: 6329129
L1D ROI Sum of L1D PQ occupancy: 339334330
L1D PREFETCHES PUSHED FROM L2C: 0
L1I TOTAL     ACCESS:   40389808  HIT:   38147685  MISS:    2242123  HIT %:    94.4488  MISS %:    5.55121   MPKI: 11.2106
L1I LOAD      ACCESS:   40389808  HIT:   38147685  MISS:    2242123  HIT %:    94.4488  MISS %:    5.55121   MPKI: 11.2106
L1I PREFETCH  REQUESTED:          0  ISSUED:          0  USEFUL:          0  USELESS:          0
L1I USEFUL LOAD PREFETCHES:          0 PREFETCH ISSUED TO LOWER LEVEL:          0  ACCURACY: -nan
L1I TIMELY PREFETCHES:          0 LATE PREFETCHES: 0 DROPPED PREFETCHES: 0
L1I PREFETCHES SAME FILL-ORIGIN LEVEL: 0 DIFFERENT FILL-ORIGIN LEVEL: 0
L1I AVERAGE MISS LATENCY: 18.5945 cycles
L1I RQ	ACCESS:   63570356	FORWARD:          0	MERGED:   22783750	TO_CACHE:   40786606

BTB TOTAL     ACCESS:   34458815  HIT:   30772876  MISS:    3685939  HIT %:    89.3033  MISS %:    10.6967   MPKI: 18.4297
BTB BRANCH_DIRECT_JUMP	ACCESS:    3454569  HIT:    3286605  MISS:     167964
BTB BRANCH_INDIRECT	ACCESS:   13788073  HIT:   12683450  MISS:    1104623
BTB BRANCH_CONDITIONAL	ACCESS:    7883610  HIT:    7670723  MISS:     212887
BTB BRANCH_DIRECT_CALL	ACCESS:    2450866  HIT:    2153292  MISS:     297574
BTB BRANCH_INDIRECT_CALL	ACCESS:    2215440  HIT:    1977201  MISS:     238239
BTB BRANCH_RETURN	ACCESS:    4666257  HIT:    3001605  MISS:    1664652
BTB BRANCH_OTHER ACCESS:          0  HIT:          0  MISS:          0

L2C TOTAL     ACCESS:    5121953  HIT:    4508954  MISS:     612999  HIT %:    88.0319  MISS %:    11.9681   MPKI: 3.065
L2C LOAD      ACCESS:    2969767  HIT:    2492149  MISS:     477618  HIT %:    83.9173  MISS %:    16.0827   MPKI: 2.38809
L2C DATA LOAD MPKI: 0.693635
L2C INSTRUCTION LOAD MPKI: 1.69446
L2C RFO       ACCESS:     300695  HIT:     232826  MISS:      67869  HIT %:    77.4293  MISS %:    22.5707   MPKI: 0.339345
L2C PREFETCH  ACCESS:     196556  HIT:     153071  MISS:      43485  HIT %:    77.8765  MISS %:    22.1235   MPKI: 0.217425
AGUS PREFETCH L1 MISS: 0
L2C DATA PREFETCH MPKI: 0.217425
L2C INSTRUCTION PREFETCH MPKI: 0
L2C WRITEBACK ACCESS:     512575  HIT:     500394  MISS:      12181  HIT %:    97.6236  MISS %:    2.37643   MPKI: 0.060905
L2C LOAD TRANSLATION ACCESS:       1109  HIT:        259  MISS:        850  HIT %:    23.3544  MISS %:    76.6456   MPKI: 0.00425
L2C TRANSLATION FROM L1D PREFETCHER ACCESS:    1141251  HIT:    1130255  MISS:      10996  HIT %:    99.0365  MISS %:   0.963504   MPKI: 0.05498
L2C PREFETCH  REQUESTED:          0  ISSUED:          0  USEFUL:      12968  USELESS:      41396
L2C USEFUL LOAD PREFETCHES:      12968 PREFETCH ISSUED TO LOWER LEVEL:      43485  ACCURACY: 29.8218
L2C TIMELY PREFETCHES:      12968 LATE PREFETCHES: 0 DROPPED PREFETCHES: 0
L2C PREFETCHES SAME FILL-ORIGIN LEVEL: 0 DIFFERENT FILL-ORIGIN LEVEL: 0
L2C AVERAGE MISS LATENCY: 29.9417 cycles
L2C RQ	ACCESS:    4412891	FORWARD:          0	MERGED:          0	TO_CACHE:    4412822
L2C WQ	ACCESS:     512575	FORWARD:         69	MERGED:          0	TO_CACHE:     512575
L2C PQ	ACCESS:     196556	FORWARD:          0	MERGED:          0	TO_CACHE:     196556

L2C Instructions Evicting Data 126193
L2C Translations Evicting Data 6215
L2C Data Evicting Data 124088
L2C Instructions Evicting Instructions 206992
L2C Translations Evicting Instructions 5443
L2C Data Evicting Instructions 120481
L2C Instructions Evicting Translations 5706
L2C Translations Evicting Translations 188
L2C Data Evicting Translations 5512
L2C Dense regions hint from L2: 0
PSCL5 TOTAL     ACCESS:     622212  HIT:     622212  MISS:          0  HIT %:        100  MISS %:          0   MPKI: 0
PSCL5 LOAD TRANSLATION ACCESS:        757  HIT:        757  MISS:          0  HIT %:        100  MISS %:          0   MPKI: 0
PSCL5 TRANSLATION FROM L1D PREFETCHER ACCESS:     621455  HIT:     621455  MISS:          0  HIT %:        100  MISS %:          0   MPKI: 0
PSCL5 PREFETCH  REQUESTED:          0  ISSUED:          0  USEFUL:          0  USELESS:          0
PSCL5 USEFUL LOAD PREFETCHES:          0 PREFETCH ISSUED TO LOWER LEVEL:          0  ACCURACY: -nan
PSCL5 TIMELY PREFETCHES:          0 LATE PREFETCHES: 0 DROPPED PREFETCHES: 0
PSCL5 PREFETCHES SAME FILL-ORIGIN LEVEL: 0 DIFFERENT FILL-ORIGIN LEVEL: 0

PSCL4 TOTAL     ACCESS:     589929  HIT:     589929  MISS:          0  HIT %:        100  MISS %:          0   MPKI: 0
PSCL4 LOAD TRANSLATION ACCESS:        757  HIT:        757  MISS:          0  HIT %:        100  MISS %:          0   MPKI: 0
PSCL4 TRANSLATION FROM L1D PREFETCHER ACCESS:     589172  HIT:     589172  MISS:          0  HIT %:        100  MISS %:          0   MPKI: 0
PSCL4 PREFETCH  REQUESTED:          0  ISSUED:          0  USEFUL:          0  USELESS:          0
PSCL4 USEFUL LOAD PREFETCHES:          0 PREFETCH ISSUED TO LOWER LEVEL:          0  ACCURACY: -nan
PSCL4 TIMELY PREFETCHES:          0 LATE PREFETCHES: 0 DROPPED PREFETCHES: 0
PSCL4 PREFETCHES SAME FILL-ORIGIN LEVEL: 0 DIFFERENT FILL-ORIGIN LEVEL: 0

PSCL3 TOTAL     ACCESS:     165872  HIT:     165751  MISS:        121  HIT %:    99.9271  MISS %:  0.0729478   MPKI: 0.000605
PSCL3 LOAD TRANSLATION ACCESS:        633  HIT:        512  MISS:        121  HIT %:    80.8847  MISS %:    19.1153   MPKI: 0.000605
PSCL3 TRANSLATION FROM L1D PREFETCHER ACCESS:     165239  HIT:     165239  MISS:          0  HIT %:        100  MISS %:          0   MPKI: 0
PSCL3 PREFETCH  REQUESTED:          0  ISSUED:          0  USEFUL:          0  USELESS:          0
PSCL3 USEFUL LOAD PREFETCHES:          0 PREFETCH ISSUED TO LOWER LEVEL:          0  ACCURACY: -nan
PSCL3 TIMELY PREFETCHES:          0 LATE PREFETCHES: 0 DROPPED PREFETCHES: 0
PSCL3 PREFETCHES SAME FILL-ORIGIN LEVEL: 0 DIFFERENT FILL-ORIGIN LEVEL: 0

PSCL2 TOTAL     ACCESS:      93823  HIT:      93588  MISS:        235  HIT %:    99.7495  MISS %:   0.250472   MPKI: 0.001175
PSCL2 LOAD TRANSLATION ACCESS:        760  HIT:        525  MISS:        235  HIT %:    69.0789  MISS %:    30.9211   MPKI: 0.001175
PSCL2 TRANSLATION FROM L1D PREFETCHER ACCESS:      93063  HIT:      93063  MISS:          0  HIT %:        100  MISS %:          0   MPKI: 0
PSCL2 PREFETCH  REQUESTED:          0  ISSUED:          0  USEFUL:          0  USELESS:          0
PSCL2 USEFUL LOAD PREFETCHES:          0 PREFETCH ISSUED TO LOWER LEVEL:          0  ACCURACY: -nan
PSCL2 TIMELY PREFETCHES:          0 LATE PREFETCHES: 0 DROPPED PREFETCHES: 0
PSCL2 PREFETCHES SAME FILL-ORIGIN LEVEL: 0 DIFFERENT FILL-ORIGIN LEVEL: 0

LLC TOTAL     ACCESS:     699933  HIT:     697883  MISS:       2050  HIT %:    99.7071  MISS %:   0.292885   MPKI: 0.01025
LLC LOAD      ACCESS:     477616  HIT:     477254  MISS:        362  HIT %:    99.9242  MISS %:  0.0757931   MPKI: 0.00181
LLC RFO       ACCESS:      67869  HIT:      67869  MISS:          0  HIT %:        100  MISS %:          0   MPKI: 0
LLC PREFETCH  ACCESS:      43485  HIT:      42113  MISS:       1372  HIT %:    96.8449  MISS %:    3.15511   MPKI: 0.00686
AGUS PREFETCH L1 MISS: 0
LLC WRITEBACK ACCESS:      99117  HIT:      99115  MISS:          2  HIT %:     99.998  MISS %: 0.00201782   MPKI: 1e-05
LLC LOAD TRANSLATION ACCESS:        850  HIT:        827  MISS:         23  HIT %:    97.2941  MISS %:    2.70588   MPKI: 0.000115
LLC TRANSLATION FROM L1D PREFETCHER ACCESS:      10996  HIT:      10705  MISS:        291  HIT %:    97.3536  MISS %:    2.64642   MPKI: 0.001455
LLC PREFETCH  REQUESTED:          0  ISSUED:          0  USEFUL:        290  USELESS:         73
LLC USEFUL LOAD PREFETCHES:        290 PREFETCH ISSUED TO LOWER LEVEL:       1372  ACCURACY: 21.137
LLC TIMELY PREFETCHES:        290 LATE PREFETCHES: 0 DROPPED PREFETCHES: 0
LLC PREFETCHES SAME FILL-ORIGIN LEVEL: 0 DIFFERENT FILL-ORIGIN LEVEL: 0
LLC AVERAGE MISS LATENCY: 160.831 cycles
LLC RQ	ACCESS:     557333	FORWARD:          0	MERGED:          0	TO_CACHE:     557331
LLC WQ	ACCESS:      99117	FORWARD:          2	MERGED:          0	TO_CACHE:      99117
LLC PQ	ACCESS:      43485	FORWARD:          0	MERGED:          0	TO_CACHE:      43485

LLC Dense regions hint to LLC: 0

RAW hits: 3079274
Loads Generated: 55268199
Loads sent to L1D: 52188921
Stores Generated: 21284223
Stores sent to L1D: 21284228
Major fault: 0 Minor fault: 1240
Allocated PAGES: 1240
Completed 

DRAM Statistics
 CHANNEL 0
 RQ ROW_BUFFER_HIT:        203  ROW_BUFFER_MISS:       1845
 DBUS_CONGESTED:          0
 WQ ROW_BUFFER_HIT:          0  ROW_BUFFER_MISS:          0  FULL:          0

 AVG_CONGESTED_CYCLE: -
 All warmup complete: 2
Channel 0 Bank busy for read cycles: 0
Channel 0 Bank busy for write cycles: 0
Channel 0
Rank 0
0banks busy for read cycles: 327746833
0banks busy for write cycles: 0
1banks busy for read cycles: 239300
1banks busy for write cycles: 0
2banks busy for read cycles: 23380
2banks busy for write cycles: 0
3banks busy for read cycles: 280
3banks busy for write cycles: 0
4banks busy for read cycles: 0
4banks busy for write cycles: 0
5banks busy for read cycles: 0
5banks busy for write cycles: 0
6banks busy for read cycles: 0
6banks busy for write cycles: 0
7banks busy for read cycles: 0
7banks busy for write cycles: 0
8banks busy for read cycles: 0
8banks busy for write cycles: 0

CPU 0 Branch Prediction Accuracy: 99.8703% MPKI: 0.256795 Average ROB Occupancy at Mispredict: 41.2684
Branch types
NOT_BRANCH: 160404714 80.2024%
BRANCH_DIRECT_JUMP: 3454569 1.72728%
BRANCH_INDIRECT: 13788073 6.89404%
BRANCH_CONDITIONAL: 13020077 6.51004%
BRANCH_DIRECT_CALL: 2450866 1.22543%
BRANCH_INDIRECT_CALL: 2215440 1.10772%
BRANCH_RETURN: 4666257 2.33313%
BRANCH_OTHER: 0 0%

DRAM PAGES: 1048576
Allocated PAGES: 1240
