
*** ChampSim Multicore Out-of-Order Simulator ***

Warmup Instructions: 50000000
Simulation Instructions: 200000000
Number of CPUs: 1
LLC sets: 2048
LLC ways: 16
Off-chip DRAM Size: 4096 MB Channels: 1 Width: 64-bit Data Rate: 6400 MT/s
CPU 0 runs traces/spec2k17/srv_10.champsimtrace.xz
.xz
BTB has LRU replacement policy
ITLB has LRU replacement policy
DTLB has LRU replacement policy
STLB has LRU replacement policy
L1I has LRU replacement policy
L1D has LRU replacement policy
Initialize SRRIP state for L2C
Initialize DRRIP state for LLC
Heartbeat CPU 0 instructions: 10000000 cycles: 2781431 heartbeat IPC: 3.59527 cumulative IPC: 3.59527 (Simulation time: 0 hr 0 min 24 sec) 
Heartbeat CPU 0 instructions: 20000002 cycles: 5556219 heartbeat IPC: 3.60388 cumulative IPC: 3.59957 (Simulation time: 0 hr 0 min 47 sec) 
Heartbeat CPU 0 instructions: 30000002 cycles: 8331476 heartbeat IPC: 3.60327 cumulative IPC: 3.6008 (Simulation time: 0 hr 1 min 11 sec) 
*** Reached end of trace for Core: 0 Repeating trace: traces/spec2k17/srv_10.champsimtrace.xz
Heartbeat CPU 0 instructions: 40000001 cycles: 11109352 heartbeat IPC: 3.59987 cumulative IPC: 3.60057 (Simulation time: 0 hr 1 min 35 sec) 
Heartbeat CPU 0 instructions: 50000002 cycles: 13884568 heartbeat IPC: 3.60332 cumulative IPC: 3.60112 (Simulation time: 0 hr 1 min 58 sec) 

Warmup complete CPU 0 instructions: 50000002 cycles: 13884568 (Simulation time: 0 hr 1 min 58 sec) 

Heartbeat CPU 0 instructions: 60000000 cycles: 37058545 heartbeat IPC: 0.431518 cumulative IPC: 0.431518 (Simulation time: 0 hr 2 min 34 sec) 
*** Reached end of trace for Core: 0 Repeating trace: traces/spec2k17/srv_10.champsimtrace.xz
Heartbeat CPU 0 instructions: 70000003 cycles: 60643733 heartbeat IPC: 0.423995 cumulative IPC: 0.427724 (Simulation time: 0 hr 3 min 11 sec) 
Heartbeat CPU 0 instructions: 80000001 cycles: 84133677 heartbeat IPC: 0.425714 cumulative IPC: 0.427052 (Simulation time: 0 hr 3 min 47 sec) 
Heartbeat CPU 0 instructions: 90000000 cycles: 107147696 heartbeat IPC: 0.434518 cumulative IPC: 0.428894 (Simulation time: 0 hr 4 min 22 sec) 
*** Reached end of trace for Core: 0 Repeating trace: traces/spec2k17/srv_10.champsimtrace.xz
Heartbeat CPU 0 instructions: 100000002 cycles: 130649390 heartbeat IPC: 0.425501 cumulative IPC: 0.428211 (Simulation time: 0 hr 4 min 58 sec) 
Heartbeat CPU 0 instructions: 110000000 cycles: 154114441 heartbeat IPC: 0.426166 cumulative IPC: 0.427869 (Simulation time: 0 hr 5 min 33 sec) 
Heartbeat CPU 0 instructions: 120000000 cycles: 177216184 heartbeat IPC: 0.432868 cumulative IPC: 0.428576 (Simulation time: 0 hr 6 min 9 sec) 
*** Reached end of trace for Core: 0 Repeating trace: traces/spec2k17/srv_10.champsimtrace.xz
Heartbeat CPU 0 instructions: 130000002 cycles: 200527835 heartbeat IPC: 0.42897 cumulative IPC: 0.428625 (Simulation time: 0 hr 6 min 44 sec) 
Heartbeat CPU 0 instructions: 140000003 cycles: 224071171 heartbeat IPC: 0.424749 cumulative IPC: 0.428191 (Simulation time: 0 hr 7 min 20 sec) 
Heartbeat CPU 0 instructions: 150000000 cycles: 247214043 heartbeat IPC: 0.432098 cumulative IPC: 0.428578 (Simulation time: 0 hr 7 min 56 sec) 
*** Reached end of trace for Core: 0 Repeating trace: traces/spec2k17/srv_10.champsimtrace.xz
Heartbeat CPU 0 instructions: 160000002 cycles: 270457818 heartbeat IPC: 0.430223 cumulative IPC: 0.428727 (Simulation time: 0 hr 8 min 31 sec) 
Heartbeat CPU 0 instructions: 170000000 cycles: 293810938 heartbeat IPC: 0.428208 cumulative IPC: 0.428684 (Simulation time: 0 hr 9 min 7 sec) 
Heartbeat CPU 0 instructions: 180000000 cycles: 316978177 heartbeat IPC: 0.431644 cumulative IPC: 0.42891 (Simulation time: 0 hr 9 min 42 sec) 
*** Reached end of trace for Core: 0 Repeating trace: traces/spec2k17/srv_10.champsimtrace.xz
Heartbeat CPU 0 instructions: 190000000 cycles: 340220164 heartbeat IPC: 0.430256 cumulative IPC: 0.429006 (Simulation time: 0 hr 10 min 18 sec) 
Heartbeat CPU 0 instructions: 200000001 cycles: 363519557 heartbeat IPC: 0.429196 cumulative IPC: 0.429019 (Simulation time: 0 hr 10 min 53 sec) 
Heartbeat CPU 0 instructions: 210000001 cycles: 386911831 heartbeat IPC: 0.427492 cumulative IPC: 0.428923 (Simulation time: 0 hr 11 min 29 sec) 
*** Reached end of trace for Core: 0 Repeating trace: traces/spec2k17/srv_10.champsimtrace.xz
Heartbeat CPU 0 instructions: 220000000 cycles: 410032214 heartbeat IPC: 0.432519 cumulative IPC: 0.429133 (Simulation time: 0 hr 12 min 5 sec) 
Heartbeat CPU 0 instructions: 230000000 cycles: 433291996 heartbeat IPC: 0.429927 cumulative IPC: 0.429177 (Simulation time: 0 hr 12 min 41 sec) 
Heartbeat CPU 0 instructions: 240000000 cycles: 456250218 heartbeat IPC: 0.435574 cumulative IPC: 0.429509 (Simulation time: 0 hr 13 min 17 sec) 
*** Reached end of trace for Core: 0 Repeating trace: traces/spec2k17/srv_10.champsimtrace.xz
Heartbeat CPU 0 instructions: 250000001 cycles: 479460500 heartbeat IPC: 0.430844 cumulative IPC: 0.429575 (Simulation time: 0 hr 13 min 53 sec) 
Finished CPU 0 instructions: 200000000 cycles: 465575933 cumulative IPC: 0.429575 (Simulation time: 0 hr 13 min 53 sec) 

ChampSim completed all CPUs

Region of Interest Statistics

CPU 0 cumulative IPC: 0.429575 instructions: 200000000 cycles: 465575933
ITLB TOTAL     ACCESS:   31520341  HIT:   30726003  MISS:     794338  HIT %:    97.4799  MISS %:    2.52008   MPKI: 3.97169
ITLB LOAD TRANSLATION ACCESS:   31520341  HIT:   30726003  MISS:     794338  HIT %:    97.4799  MISS %:    2.52008   MPKI: 3.97169
ITLB PREFETCH  REQUESTED:          0  ISSUED:          0  USEFUL:          0  USELESS:          0
ITLB USEFUL LOAD PREFETCHES:          0 PREFETCH ISSUED TO LOWER LEVEL:          0  ACCURACY: -nan
ITLB TIMELY PREFETCHES:          0 LATE PREFETCHES: 0 DROPPED PREFETCHES: 0
ITLB PREFETCHES SAME FILL-ORIGIN LEVEL: 0 DIFFERENT FILL-ORIGIN LEVEL: 0
ITLB AVERAGE MISS LATENCY: 15.9629 cycles
ITLB RQ	ACCESS:   38423257	FORWARD:          0	MERGED:    6711718	TO_CACHE:   31711539

DTLB TOTAL     ACCESS:   37383086  HIT:   34868366  MISS:    2514720  HIT %:    93.2731  MISS %:    6.72689   MPKI: 12.5736
DTLB LOAD TRANSLATION ACCESS:   37383086  HIT:   34868366  MISS:    2514720  HIT %:    93.2731  MISS %:    6.72689   MPKI: 12.5736
DTLB PREFETCH  REQUESTED:          0  ISSUED:          0  USEFUL:          0  USELESS:          0
DTLB USEFUL LOAD PREFETCHES:          0 PREFETCH ISSUED TO LOWER LEVEL:          0  ACCURACY: -nan
DTLB TIMELY PREFETCHES:          0 LATE PREFETCHES: 0 DROPPED PREFETCHES: 0
DTLB PREFETCHES SAME FILL-ORIGIN LEVEL: 0 DIFFERENT FILL-ORIGIN LEVEL: 0
DTLB AVERAGE MISS LATENCY: 13.4946 cycles
DTLB RQ	ACCESS:   47835655	FORWARD:          0	MERGED:   10301750	TO_CACHE:   37533905

STLB TOTAL     ACCESS:   11244121  HIT:   10771823  MISS:     472298  HIT %:    95.7996  MISS %:     4.2004   MPKI: 2.36149
STLB LOAD TRANSLATION ACCESS:    3309058  HIT:    2850670  MISS:     458388  HIT %:    86.1475  MISS %:    13.8525   MPKI: 2.29194
STLB TRANSLATION FROM L1D PREFETCHER ACCESS:    7935063  HIT:    7921153  MISS:      13910  HIT %:    99.8247  MISS %:   0.175298   MPKI: 0.06955
STLB PREFETCH  REQUESTED:          0  ISSUED:          0  USEFUL:      11904  USELESS:       2003
STLB USEFUL LOAD PREFETCHES:      11904 PREFETCH ISSUED TO LOWER LEVEL:          0  ACCURACY: inf
STLB TIMELY PREFETCHES:      11904 LATE PREFETCHES: 3056 DROPPED PREFETCHES: 401944
STLB PREFETCHES SAME FILL-ORIGIN LEVEL: 0 DIFFERENT FILL-ORIGIN LEVEL: 0
STLB AVERAGE MISS LATENCY: 38.5067 cycles
STLB RQ	ACCESS:   13241519	FORWARD:          0	MERGED:    1590484	TO_CACHE:   11651035

STLB Hit, L1D data hit: 0
STLB Hit, L2C data hit: 0
STLB Hit, LLC data hit: 0
STLB Hit, LLC data miss: 0
STLB STLB hints to L2: 0
L1D TOTAL     ACCESS:   56592343  HIT:   53951258  MISS:    2641085  HIT %:    95.3331  MISS %:    4.66686   MPKI: 13.2054
L1D LOAD      ACCESS:   27756942  HIT:   25683003  MISS:    2073939  HIT %:    92.5282  MISS %:    7.47178   MPKI: 10.3697
L1D RFO       ACCESS:   19499753  HIT:   19142768  MISS:     356985  HIT %:    98.1693  MISS %:    1.83072   MPKI: 1.78493
L1D PREFETCH  ACCESS:    9335648  HIT:    9125487  MISS:     210161  HIT %:    97.7488  MISS %:    2.25117   MPKI: 1.0508
AGUS PREFETCH L1 MISS: 0
L1D PREFETCH  REQUESTED:   21510297  ISSUED:   21509040  USEFUL:     118216  USELESS:      91937
L1D USEFUL LOAD PREFETCHES:     118216 PREFETCH ISSUED TO LOWER LEVEL:     265981  ACCURACY: 44.4453
L1D TIMELY PREFETCHES:     118216 LATE PREFETCHES: 55544 DROPPED PREFETCHES: 434878
L1D PREFETCHES SAME FILL-ORIGIN LEVEL: 265981 DIFFERENT FILL-ORIGIN LEVEL: 0
L1D AVERAGE MISS LATENCY: 6.80053e+06 cycles
L1D RQ	ACCESS:   42020123	FORWARD:          0	MERGED:   13906407	TO_CACHE:   27899493
L1D WQ	ACCESS:   20227584	FORWARD:     255313	MERGED:     291422	TO_CACHE:   19936162
L1D PQ	ACCESS:   11576579	FORWARD:          0	MERGED:    1603028	TO_CACHE:    9932461

L1D UNIQUE REGIONS ACCESSED: 0
L1D REGIONS CONFLICTS: 0
L1D Cross Page Prefetch Requests: 8186517
L1D Same Page Prefetch Requests: 5152344
L1D ROI Sum of L1D PQ occupancy: 155331916
L1D PREFETCHES PUSHED FROM L2C: 0
L1I TOTAL     ACCESS:   36764280  HIT:   31720849  MISS:    5043431  HIT %:    86.2817  MISS %:    13.7183   MPKI: 25.2172
L1I LOAD      ACCESS:   36764280  HIT:   31720849  MISS:    5043431  HIT %:    86.2817  MISS %:    13.7183   MPKI: 25.2172
L1I PREFETCH  REQUESTED:          0  ISSUED:          0  USEFUL:          0  USELESS:          0
L1I USEFUL LOAD PREFETCHES:          0 PREFETCH ISSUED TO LOWER LEVEL:          0  ACCURACY: -nan
L1I TIMELY PREFETCHES:          0 LATE PREFETCHES: 0 DROPPED PREFETCHES: 0
L1I PREFETCHES SAME FILL-ORIGIN LEVEL: 0 DIFFERENT FILL-ORIGIN LEVEL: 0
L1I AVERAGE MISS LATENCY: 27.9712 cycles
L1I RQ	ACCESS:   57063635	FORWARD:          0	MERGED:   18640378	TO_CACHE:   38423257

BTB TOTAL     ACCESS:   22616971  HIT:   17672573  MISS:    4944398  HIT %:    78.1385  MISS %:    21.8615   MPKI: 24.722
BTB BRANCH_DIRECT_JUMP	ACCESS:    1742577  HIT:    1446257  MISS:     296320
BTB BRANCH_INDIRECT	ACCESS:    9604965  HIT:    7286777  MISS:    2318188
BTB BRANCH_CONDITIONAL	ACCESS:    4679517  HIT:    4209943  MISS:     469574
BTB BRANCH_DIRECT_CALL	ACCESS:    2572130  HIT:    1992728  MISS:     579402
BTB BRANCH_INDIRECT_CALL	ACCESS:     719271  HIT:     661890  MISS:      57381
BTB BRANCH_RETURN	ACCESS:    3298511  HIT:    2074978  MISS:    1223533
BTB BRANCH_OTHER ACCESS:          0  HIT:          0  MISS:          0

L2C TOTAL     ACCESS:    9790240  HIT:    5842353  MISS:    3947887  HIT %:    59.6753  MISS %:    40.3247   MPKI: 19.7394
L2C LOAD      ACCESS:    7061689  HIT:    3697958  MISS:    3363731  HIT %:    52.3665  MISS %:    47.6335   MPKI: 16.8187
L2C DATA LOAD MPKI: 5.40534
L2C INSTRUCTION LOAD MPKI: 11.4133
L2C RFO       ACCESS:     356704  HIT:     177658  MISS:     179046  HIT %:    49.8054  MISS %:    50.1946   MPKI: 0.89523
L2C PREFETCH  ACCESS:     265940  HIT:     160998  MISS:     104942  HIT %:    60.5392  MISS %:    39.4608   MPKI: 0.52471
AGUS PREFETCH L1 MISS: 0
L2C DATA PREFETCH MPKI: 0.52471
L2C INSTRUCTION PREFETCH MPKI: 0
L2C WRITEBACK ACCESS:    1017026  HIT:     961914  MISS:      55112  HIT %:    94.5811  MISS %:    5.41894   MPKI: 0.27556
L2C LOAD TRANSLATION ACCESS:     575436  HIT:     366788  MISS:     208648  HIT %:    63.7409  MISS %:    36.2591   MPKI: 1.04324
L2C TRANSLATION FROM L1D PREFETCHER ACCESS:     513445  HIT:     477037  MISS:      36408  HIT %:    92.9091  MISS %:    7.09093   MPKI: 0.18204
L2C PREFETCH  REQUESTED:          0  ISSUED:          0  USEFUL:      30404  USELESS:     110740
L2C USEFUL LOAD PREFETCHES:      30404 PREFETCH ISSUED TO LOWER LEVEL:     104942  ACCURACY: 28.9722
L2C TIMELY PREFETCHES:      30404 LATE PREFETCHES: 0 DROPPED PREFETCHES: 0
L2C PREFETCHES SAME FILL-ORIGIN LEVEL: 0 DIFFERENT FILL-ORIGIN LEVEL: 0
L2C AVERAGE MISS LATENCY: 39.2639 cycles
L2C RQ	ACCESS:    8507416	FORWARD:          0	MERGED:          0	TO_CACHE:    8507274
L2C WQ	ACCESS:    1017026	FORWARD:        183	MERGED:          0	TO_CACHE:    1017026
L2C PQ	ACCESS:     265981	FORWARD:          0	MERGED:          0	TO_CACHE:     265940

L2C Instructions Evicting Data 819298
L2C Translations Evicting Data 89821
L2C Data Evicting Data 490948
L2C Instructions Evicting Instructions 1323513
L2C Translations Evicting Instructions 140225
L2C Data Evicting Instructions 787772
L2C Instructions Evicting Translations 139853
L2C Translations Evicting Translations 15010
L2C Data Evicting Translations 86335
L2C Dense regions hint from L2: 0
PSCL5 TOTAL     ACCESS:     792735  HIT:     792735  MISS:          0  HIT %:        100  MISS %:          0   MPKI: 0
PSCL5 LOAD TRANSLATION ACCESS:     455332  HIT:     455332  MISS:          0  HIT %:        100  MISS %:          0   MPKI: 0
PSCL5 TRANSLATION FROM L1D PREFETCHER ACCESS:     337403  HIT:     337403  MISS:          0  HIT %:        100  MISS %:          0   MPKI: 0
PSCL5 PREFETCH  REQUESTED:          0  ISSUED:          0  USEFUL:          0  USELESS:          0
PSCL5 USEFUL LOAD PREFETCHES:          0 PREFETCH ISSUED TO LOWER LEVEL:          0  ACCURACY: -nan
PSCL5 TIMELY PREFETCHES:          0 LATE PREFETCHES: 0 DROPPED PREFETCHES: 0
PSCL5 PREFETCHES SAME FILL-ORIGIN LEVEL: 0 DIFFERENT FILL-ORIGIN LEVEL: 0

PSCL4 TOTAL     ACCESS:     724394  HIT:     723286  MISS:       1108  HIT %:     99.847  MISS %:   0.152955   MPKI: 0.00554
PSCL4 LOAD TRANSLATION ACCESS:     430879  HIT:     429771  MISS:       1108  HIT %:    99.7429  MISS %:   0.257149   MPKI: 0.00554
PSCL4 TRANSLATION FROM L1D PREFETCHER ACCESS:     293515  HIT:     293515  MISS:          0  HIT %:        100  MISS %:          0   MPKI: 0
PSCL4 PREFETCH  REQUESTED:          0  ISSUED:          0  USEFUL:          0  USELESS:          0
PSCL4 USEFUL LOAD PREFETCHES:          0 PREFETCH ISSUED TO LOWER LEVEL:          0  ACCURACY: -nan
PSCL4 TIMELY PREFETCHES:          0 LATE PREFETCHES: 0 DROPPED PREFETCHES: 0
PSCL4 PREFETCHES SAME FILL-ORIGIN LEVEL: 0 DIFFERENT FILL-ORIGIN LEVEL: 0

PSCL3 TOTAL     ACCESS:     730883  HIT:     727112  MISS:       3771  HIT %:     99.484  MISS %:   0.515951   MPKI: 0.018855
PSCL3 LOAD TRANSLATION ACCESS:     451751  HIT:     447980  MISS:       3771  HIT %:    99.1652  MISS %:   0.834752   MPKI: 0.018855
PSCL3 TRANSLATION FROM L1D PREFETCHER ACCESS:     279132  HIT:     279132  MISS:          0  HIT %:        100  MISS %:          0   MPKI: 0
PSCL3 PREFETCH  REQUESTED:          0  ISSUED:          0  USEFUL:          0  USELESS:          0
PSCL3 USEFUL LOAD PREFETCHES:          0 PREFETCH ISSUED TO LOWER LEVEL:          0  ACCURACY: -nan
PSCL3 TIMELY PREFETCHES:          0 LATE PREFETCHES: 0 DROPPED PREFETCHES: 0
PSCL3 PREFETCHES SAME FILL-ORIGIN LEVEL: 0 DIFFERENT FILL-ORIGIN LEVEL: 0

PSCL2 TOTAL     ACCESS:     514610  HIT:     391557  MISS:     123053  HIT %:    76.0881  MISS %:    23.9119   MPKI: 0.615265
PSCL2 LOAD TRANSLATION ACCESS:     463045  HIT:     339992  MISS:     123053  HIT %:    73.4253  MISS %:    26.5747   MPKI: 0.615265
PSCL2 TRANSLATION FROM L1D PREFETCHER ACCESS:      51565  HIT:      51565  MISS:          0  HIT %:        100  MISS %:          0   MPKI: 0
PSCL2 PREFETCH  REQUESTED:          0  ISSUED:          0  USEFUL:          0  USELESS:          0
PSCL2 USEFUL LOAD PREFETCHES:          0 PREFETCH ISSUED TO LOWER LEVEL:          0  ACCURACY: -nan
PSCL2 TIMELY PREFETCHES:          0 LATE PREFETCHES: 0 DROPPED PREFETCHES: 0
PSCL2 PREFETCHES SAME FILL-ORIGIN LEVEL: 0 DIFFERENT FILL-ORIGIN LEVEL: 0

LLC TOTAL     ACCESS:    4375293  HIT:    4132914  MISS:     242379  HIT %:    94.4603  MISS %:    5.53972   MPKI: 1.21189
LLC LOAD      ACCESS:    3363731  HIT:    3176624  MISS:     187107  HIT %:    94.4375  MISS %:    5.56248   MPKI: 0.935535
LLC RFO       ACCESS:     179046  HIT:     137125  MISS:      41921  HIT %:    76.5865  MISS %:    23.4135   MPKI: 0.209605
LLC PREFETCH  ACCESS:     104942  HIT:      97403  MISS:       7539  HIT %:     92.816  MISS %:    7.18397   MPKI: 0.037695
AGUS PREFETCH L1 MISS: 0
LLC WRITEBACK ACCESS:     482518  HIT:     481080  MISS:       1438  HIT %:     99.702  MISS %:    0.29802   MPKI: 0.00719
LLC LOAD TRANSLATION ACCESS:     208648  HIT:     205863  MISS:       2785  HIT %:    98.6652  MISS %:    1.33478   MPKI: 0.013925
LLC TRANSLATION FROM L1D PREFETCHER ACCESS:      36408  HIT:      34819  MISS:       1589  HIT %:    95.6356  MISS %:    4.36443   MPKI: 0.007945
LLC PREFETCH  REQUESTED:          0  ISSUED:          0  USEFUL:       1740  USELESS:       7127
LLC USEFUL LOAD PREFETCHES:       1740 PREFETCH ISSUED TO LOWER LEVEL:       7539  ACCURACY: 23.08
LLC TIMELY PREFETCHES:       1740 LATE PREFETCHES: 0 DROPPED PREFETCHES: 0
LLC PREFETCHES SAME FILL-ORIGIN LEVEL: 0 DIFFERENT FILL-ORIGIN LEVEL: 0
LLC AVERAGE MISS LATENCY: 157.704 cycles
LLC RQ	ACCESS:    3787833	FORWARD:          0	MERGED:          0	TO_CACHE:    3787833
LLC WQ	ACCESS:     482518	FORWARD:          0	MERGED:          0	TO_CACHE:     482518
LLC PQ	ACCESS:     104942	FORWARD:          0	MERGED:          0	TO_CACHE:     104942

LLC Dense regions hint to LLC: 0

RAW hits: 2703319
Loads Generated: 44723442
Loads sent to L1D: 42020123
Stores Generated: 20227563
Stores sent to L1D: 20227584
Major fault: 0 Minor fault: 4015
Allocated PAGES: 4015
Completed 

DRAM Statistics
 CHANNEL 0
 RQ ROW_BUFFER_HIT:      30705  ROW_BUFFER_MISS:     210236
 DBUS_CONGESTED:         76
 WQ ROW_BUFFER_HIT:      18665  ROW_BUFFER_MISS:     182350  FULL:          0

 AVG_CONGESTED_CYCLE: 4
 All warmup complete: 2
Channel 0 Bank busy for read cycles: 0
Channel 0 Bank busy for write cycles: 0
Channel 0
Rank 0
0banks busy for read cycles: 415128416
0banks busy for write cycles: 125390
1banks busy for read cycles: 23673482
1banks busy for write cycles: 17104848
2banks busy for read cycles: 2958859
2banks busy for write cycles: 3618284
3banks busy for read cycles: 427148
3banks busy for write cycles: 866853
4banks busy for read cycles: 223669
4banks busy for write cycles: 384501
5banks busy for read cycles: 87963
5banks busy for write cycles: 234453
6banks busy for read cycles: 44213
6banks busy for write cycles: 174039
7banks busy for read cycles: 35082
7banks busy for write cycles: 179528
8banks busy for read cycles: 44133
8banks busy for write cycles: 265073

CPU 0 Branch Prediction Accuracy: 99.8374% MPKI: 0.292835 Average ROB Occupancy at Mispredict: 37.658
Branch types
NOT_BRANCH: 163982148 81.9911%
BRANCH_DIRECT_JUMP: 1742577 0.871289%
BRANCH_INDIRECT: 9604965 4.80248%
BRANCH_CONDITIONAL: 18080053 9.04003%
BRANCH_DIRECT_CALL: 2572130 1.28607%
BRANCH_INDIRECT_CALL: 719271 0.359635%
BRANCH_RETURN: 3298511 1.64926%
BRANCH_OTHER: 0 0%

DRAM PAGES: 1048576
Allocated PAGES: 4015
