
*** ChampSim Multicore Out-of-Order Simulator ***

Warmup Instructions: 50000000
Simulation Instructions: 200000000
Number of CPUs: 1
LLC sets: 2048
LLC ways: 16
Off-chip DRAM Size: 4096 MB Channels: 1 Width: 64-bit Data Rate: 6400 MT/s
CPU 0 runs traces/spec2k17/srv_25.champsimtrace.xz
.xz
BTB has LRU replacement policy
ITLB has LRU replacement policy
DTLB has LRU replacement policy
STLB has LRU replacement policy
L1I has LRU replacement policy
L1D has LRU replacement policy
Initialize SRRIP state for L2C
Initialize DRRIP state for LLC
Heartbeat CPU 0 instructions: 10000003 cycles: 2838681 heartbeat IPC: 3.52276 cumulative IPC: 3.52276 (Simulation time: 0 hr 0 min 22 sec) 
Heartbeat CPU 0 instructions: 20000001 cycles: 5674968 heartbeat IPC: 3.52574 cumulative IPC: 3.52425 (Simulation time: 0 hr 0 min 45 sec) 
Heartbeat CPU 0 instructions: 30000003 cycles: 8511603 heartbeat IPC: 3.5253 cumulative IPC: 3.5246 (Simulation time: 0 hr 1 min 7 sec) 
*** Reached end of trace for Core: 0 Repeating trace: traces/spec2k17/srv_25.champsimtrace.xz
Heartbeat CPU 0 instructions: 40000002 cycles: 11353530 heartbeat IPC: 3.51874 cumulative IPC: 3.52313 (Simulation time: 0 hr 1 min 29 sec) 
Heartbeat CPU 0 instructions: 50000002 cycles: 14204282 heartbeat IPC: 3.50785 cumulative IPC: 3.52007 (Simulation time: 0 hr 1 min 52 sec) 

Warmup complete CPU 0 instructions: 50000002 cycles: 14204282 (Simulation time: 0 hr 1 min 52 sec) 

Heartbeat CPU 0 instructions: 60000002 cycles: 46934184 heartbeat IPC: 0.305531 cumulative IPC: 0.305531 (Simulation time: 0 hr 2 min 31 sec) 
*** Reached end of trace for Core: 0 Repeating trace: traces/spec2k17/srv_25.champsimtrace.xz
Heartbeat CPU 0 instructions: 70000001 cycles: 79550913 heartbeat IPC: 0.306591 cumulative IPC: 0.30606 (Simulation time: 0 hr 3 min 10 sec) 
Heartbeat CPU 0 instructions: 80000003 cycles: 112341959 heartbeat IPC: 0.304961 cumulative IPC: 0.305693 (Simulation time: 0 hr 3 min 50 sec) 
Heartbeat CPU 0 instructions: 90000001 cycles: 144728529 heartbeat IPC: 0.30877 cumulative IPC: 0.306456 (Simulation time: 0 hr 4 min 30 sec) 
*** Reached end of trace for Core: 0 Repeating trace: traces/spec2k17/srv_25.champsimtrace.xz
Heartbeat CPU 0 instructions: 100000002 cycles: 177056057 heartbeat IPC: 0.309334 cumulative IPC: 0.307028 (Simulation time: 0 hr 5 min 10 sec) 
Heartbeat CPU 0 instructions: 110000000 cycles: 209550608 heartbeat IPC: 0.307744 cumulative IPC: 0.307147 (Simulation time: 0 hr 5 min 50 sec) 
Heartbeat CPU 0 instructions: 120000000 cycles: 241893411 heartbeat IPC: 0.309188 cumulative IPC: 0.307437 (Simulation time: 0 hr 6 min 29 sec) 
*** Reached end of trace for Core: 0 Repeating trace: traces/spec2k17/srv_25.champsimtrace.xz
Heartbeat CPU 0 instructions: 130000000 cycles: 274200375 heartbeat IPC: 0.309531 cumulative IPC: 0.307697 (Simulation time: 0 hr 7 min 9 sec) 
Heartbeat CPU 0 instructions: 140000000 cycles: 306628023 heartbeat IPC: 0.308379 cumulative IPC: 0.307773 (Simulation time: 0 hr 7 min 48 sec) 
Heartbeat CPU 0 instructions: 150000000 cycles: 338975198 heartbeat IPC: 0.309146 cumulative IPC: 0.307909 (Simulation time: 0 hr 8 min 28 sec) 
*** Reached end of trace for Core: 0 Repeating trace: traces/spec2k17/srv_25.champsimtrace.xz
Heartbeat CPU 0 instructions: 160000000 cycles: 371208635 heartbeat IPC: 0.310237 cumulative IPC: 0.308119 (Simulation time: 0 hr 9 min 7 sec) 
Heartbeat CPU 0 instructions: 170000003 cycles: 403625156 heartbeat IPC: 0.308485 cumulative IPC: 0.30815 (Simulation time: 0 hr 9 min 47 sec) 
Heartbeat CPU 0 instructions: 180000000 cycles: 436052649 heartbeat IPC: 0.30838 cumulative IPC: 0.308168 (Simulation time: 0 hr 10 min 27 sec) 
*** Reached end of trace for Core: 0 Repeating trace: traces/spec2k17/srv_25.champsimtrace.xz
Heartbeat CPU 0 instructions: 190000001 cycles: 468267377 heartbeat IPC: 0.310417 cumulative IPC: 0.308327 (Simulation time: 0 hr 11 min 6 sec) 
Heartbeat CPU 0 instructions: 200000001 cycles: 500572684 heartbeat IPC: 0.309547 cumulative IPC: 0.308408 (Simulation time: 0 hr 11 min 46 sec) 
Heartbeat CPU 0 instructions: 210000000 cycles: 533050605 heartbeat IPC: 0.307901 cumulative IPC: 0.308376 (Simulation time: 0 hr 12 min 29 sec) 
*** Reached end of trace for Core: 0 Repeating trace: traces/spec2k17/srv_25.champsimtrace.xz
Heartbeat CPU 0 instructions: 220000000 cycles: 565186034 heartbeat IPC: 0.311183 cumulative IPC: 0.30854 (Simulation time: 0 hr 13 min 8 sec) 
Heartbeat CPU 0 instructions: 230000000 cycles: 597501291 heartbeat IPC: 0.309451 cumulative IPC: 0.308591 (Simulation time: 0 hr 13 min 48 sec) 
Heartbeat CPU 0 instructions: 240000003 cycles: 630032292 heartbeat IPC: 0.307399 cumulative IPC: 0.308528 (Simulation time: 0 hr 14 min 28 sec) 
Heartbeat CPU 0 instructions: 250000001 cycles: 662069586 heartbeat IPC: 0.312136 cumulative IPC: 0.308706 (Simulation time: 0 hr 15 min 8 sec) 
Finished CPU 0 instructions: 200000003 cycles: 647865305 cumulative IPC: 0.308706 (Simulation time: 0 hr 15 min 8 sec) 

ChampSim completed all CPUs

Region of Interest Statistics

CPU 0 cumulative IPC: 0.308706 instructions: 200000003 cycles: 647865305
ITLB TOTAL     ACCESS:   35350214  HIT:   33086796  MISS:    2263418  HIT %:    93.5972  MISS %:    6.40284   MPKI: 11.3171
ITLB LOAD TRANSLATION ACCESS:   35350214  HIT:   33086796  MISS:    2263418  HIT %:    93.5972  MISS %:    6.40284   MPKI: 11.3171
ITLB PREFETCH  REQUESTED:          0  ISSUED:          0  USEFUL:          0  USELESS:          0
ITLB USEFUL LOAD PREFETCHES:          0 PREFETCH ISSUED TO LOWER LEVEL:          0  ACCURACY: -nan
ITLB TIMELY PREFETCHES:          0 LATE PREFETCHES: 0 DROPPED PREFETCHES: 0
ITLB PREFETCHES SAME FILL-ORIGIN LEVEL: 0 DIFFERENT FILL-ORIGIN LEVEL: 0
ITLB AVERAGE MISS LATENCY: 9.18326 cycles
ITLB RQ	ACCESS:   41717899	FORWARD:          0	MERGED:    5823484	TO_CACHE:   35894415

DTLB TOTAL     ACCESS:   46065310  HIT:   43907480  MISS:    2157830  HIT %:    95.3157  MISS %:    4.68428   MPKI: 10.7891
DTLB LOAD TRANSLATION ACCESS:   46065310  HIT:   43907480  MISS:    2157830  HIT %:    95.3157  MISS %:    4.68428   MPKI: 10.7891
DTLB PREFETCH  REQUESTED:          0  ISSUED:          0  USEFUL:          0  USELESS:          0
DTLB USEFUL LOAD PREFETCHES:          0 PREFETCH ISSUED TO LOWER LEVEL:          0  ACCURACY: -nan
DTLB TIMELY PREFETCHES:          0 LATE PREFETCHES: 0 DROPPED PREFETCHES: 0
DTLB PREFETCHES SAME FILL-ORIGIN LEVEL: 0 DIFFERENT FILL-ORIGIN LEVEL: 0
DTLB AVERAGE MISS LATENCY: 9.33207 cycles
DTLB RQ	ACCESS:   60892576	FORWARD:          0	MERGED:   14768604	TO_CACHE:   46123972

STLB TOTAL     ACCESS:   24114938  HIT:   24053642  MISS:      61296  HIT %:    99.7458  MISS %:   0.254183   MPKI: 0.30648
STLB LOAD TRANSLATION ACCESS:    4421248  HIT:    4361844  MISS:      59404  HIT %:    98.6564  MISS %:     1.3436   MPKI: 0.29702
STLB TRANSLATION FROM L1D PREFETCHER ACCESS:   19693690  HIT:   19691798  MISS:       1892  HIT %:    99.9904  MISS %: 0.00960714   MPKI: 0.00946
STLB PREFETCH  REQUESTED:          0  ISSUED:          0  USEFUL:       1778  USELESS:        114
STLB USEFUL LOAD PREFETCHES:       1778 PREFETCH ISSUED TO LOWER LEVEL:          0  ACCURACY: inf
STLB TIMELY PREFETCHES:       1778 LATE PREFETCHES: 467 DROPPED PREFETCHES: 271879
STLB PREFETCHES SAME FILL-ORIGIN LEVEL: 0 DIFFERENT FILL-ORIGIN LEVEL: 0
STLB AVERAGE MISS LATENCY: 51.5987 cycles
STLB RQ	ACCESS:   28254071	FORWARD:          0	MERGED:    3865155	TO_CACHE:   24388916

STLB Hit, L1D data hit: 0
STLB Hit, L2C data hit: 0
STLB Hit, LLC data hit: 0
STLB Hit, LLC data miss: 0
STLB STLB hints to L2: 0
L1D TOTAL     ACCESS:   81294365  HIT:   75874237  MISS:    5420128  HIT %:    93.3327  MISS %:    6.66729   MPKI: 27.1006
L1D LOAD      ACCESS:   33932442  HIT:   31231575  MISS:    2700867  HIT %:    92.0405  MISS %:    7.95954   MPKI: 13.5043
L1D RFO       ACCESS:   25261358  HIT:   24163733  MISS:    1097625  HIT %:    95.6549  MISS %:    4.34508   MPKI: 5.48812
L1D PREFETCH  ACCESS:   22100565  HIT:   20478929  MISS:    1621636  HIT %:    92.6625  MISS %:    7.33753   MPKI: 8.10818
AGUS PREFETCH L1 MISS: 0
L1D PREFETCH  REQUESTED:   50047351  ISSUED:   50047283  USEFUL:    1209787  USELESS:     411814
L1D USEFUL LOAD PREFETCHES:    1209787 PREFETCH ISSUED TO LOWER LEVEL:    2331682  ACCURACY: 51.8847
L1D TIMELY PREFETCHES:    1209787 LATE PREFETCHES: 703992 DROPPED PREFETCHES: 300404
L1D PREFETCHES SAME FILL-ORIGIN LEVEL: 2331682 DIFFERENT FILL-ORIGIN LEVEL: 0
L1D AVERAGE MISS LATENCY: 4.82598e+07 cycles
L1D RQ	ACCESS:   46576290	FORWARD:          0	MERGED:   12209782	TO_CACHE:   34040540
L1D WQ	ACCESS:   26999502	FORWARD:     367677	MERGED:     147466	TO_CACHE:   26852036
L1D PQ	ACCESS:   26214460	FORWARD:          0	MERGED:    2339928	TO_CACHE:   23832823

L1D UNIQUE REGIONS ACCESSED: 0
L1D REGIONS CONFLICTS: 0
L1D Cross Page Prefetch Requests: 17725585
L1D Same Page Prefetch Requests: 10066277
L1D ROI Sum of L1D PQ occupancy: 331737565
L1D PREFETCHES PUSHED FROM L2C: 0
L1I TOTAL     ACCESS:   40024922  HIT:   28524167  MISS:   11500755  HIT %:     71.266  MISS %:     28.734   MPKI: 57.5038
L1I LOAD      ACCESS:   40024922  HIT:   28524167  MISS:   11500755  HIT %:     71.266  MISS %:     28.734   MPKI: 57.5038
L1I PREFETCH  REQUESTED:          0  ISSUED:          0  USEFUL:          0  USELESS:          0
L1I USEFUL LOAD PREFETCHES:          0 PREFETCH ISSUED TO LOWER LEVEL:          0  ACCURACY: -nan
L1I TIMELY PREFETCHES:          0 LATE PREFETCHES: 0 DROPPED PREFETCHES: 0
L1I PREFETCHES SAME FILL-ORIGIN LEVEL: 0 DIFFERENT FILL-ORIGIN LEVEL: 0
L1I AVERAGE MISS LATENCY: 15.7319 cycles
L1I RQ	ACCESS:   58682496	FORWARD:          0	MERGED:   16964597	TO_CACHE:   41717899

BTB TOTAL     ACCESS:   30550565  HIT:   17847955  MISS:   12702610  HIT %:     58.421  MISS %:     41.579   MPKI: 63.513
BTB BRANCH_DIRECT_JUMP	ACCESS:    2073765  HIT:    1256441  MISS:     817324
BTB BRANCH_INDIRECT	ACCESS:   12278071  HIT:    7369228  MISS:    4908843
BTB BRANCH_CONDITIONAL	ACCESS:    6949199  HIT:    5659195  MISS:    1290004
BTB BRANCH_DIRECT_CALL	ACCESS:    3898896  HIT:    1843151  MISS:    2055745
BTB BRANCH_INDIRECT_CALL	ACCESS:     725884  HIT:     351632  MISS:     374252
BTB BRANCH_RETURN	ACCESS:    4624750  HIT:    1368308  MISS:    3256442
BTB BRANCH_OTHER ACCESS:          0  HIT:          0  MISS:          0

L2C TOTAL     ACCESS:   19693819  HIT:   18507834  MISS:    1185985  HIT %:    93.9779  MISS %:    6.02212   MPKI: 5.92992
L2C LOAD      ACCESS:   13497535  HIT:   12591064  MISS:     906471  HIT %:    93.2842  MISS %:    6.71583   MPKI: 4.53235
L2C DATA LOAD MPKI: 1.39672
L2C INSTRUCTION LOAD MPKI: 3.13563
L2C RFO       ACCESS:    1091571  HIT:    1025297  MISS:      66274  HIT %:    93.9286  MISS %:    6.07143   MPKI: 0.33137
L2C PREFETCH  ACCESS:    2331657  HIT:    2207246  MISS:     124411  HIT %:    94.6643  MISS %:    5.33573   MPKI: 0.622055
AGUS PREFETCH L1 MISS: 0
L2C DATA PREFETCH MPKI: 0.622055
L2C INSTRUCTION PREFETCH MPKI: 0
L2C WRITEBACK ACCESS:    2283086  HIT:    2257158  MISS:      25928  HIT %:    98.8643  MISS %:    1.13566   MPKI: 0.12964
L2C LOAD TRANSLATION ACCESS:      88380  HIT:      48670  MISS:      39710  HIT %:     55.069  MISS %:     44.931   MPKI: 0.19855
L2C TRANSLATION FROM L1D PREFETCHER ACCESS:     401590  HIT:     378399  MISS:      23191  HIT %:    94.2252  MISS %:     5.7748   MPKI: 0.115955
L2C PREFETCH  REQUESTED:          0  ISSUED:          0  USEFUL:      16837  USELESS:     130782
L2C USEFUL LOAD PREFETCHES:      16837 PREFETCH ISSUED TO LOWER LEVEL:     124411  ACCURACY: 13.5334
L2C TIMELY PREFETCHES:      16837 LATE PREFETCHES: 0 DROPPED PREFETCHES: 0
L2C PREFETCHES SAME FILL-ORIGIN LEVEL: 0 DIFFERENT FILL-ORIGIN LEVEL: 0
L2C AVERAGE MISS LATENCY: 35.7083 cycles
L2C RQ	ACCESS:   15079170	FORWARD:          0	MERGED:          0	TO_CACHE:   15079076
L2C WQ	ACCESS:    2283086	FORWARD:        119	MERGED:          0	TO_CACHE:    2283086
L2C PQ	ACCESS:    2331682	FORWARD:          0	MERGED:          0	TO_CACHE:    2331657

L2C Instructions Evicting Data 209939
L2C Translations Evicting Data 36544
L2C Data Evicting Data 239582
L2C Instructions Evicting Instructions 396885
L2C Translations Evicting Instructions 20692
L2C Data Evicting Instructions 194553
L2C Instructions Evicting Translations 20302
L2C Translations Evicting Translations 5665
L2C Data Evicting Translations 35895
L2C Dense regions hint from L2: 0
PSCL5 TOTAL     ACCESS:     331526  HIT:     331526  MISS:          0  HIT %:        100  MISS %:          0   MPKI: 0
PSCL5 LOAD TRANSLATION ACCESS:      58937  HIT:      58937  MISS:          0  HIT %:        100  MISS %:          0   MPKI: 0
PSCL5 TRANSLATION FROM L1D PREFETCHER ACCESS:     272589  HIT:     272589  MISS:          0  HIT %:        100  MISS %:          0   MPKI: 0
PSCL5 PREFETCH  REQUESTED:          0  ISSUED:          0  USEFUL:          0  USELESS:          0
PSCL5 USEFUL LOAD PREFETCHES:          0 PREFETCH ISSUED TO LOWER LEVEL:          0  ACCURACY: -nan
PSCL5 TIMELY PREFETCHES:          0 LATE PREFETCHES: 0 DROPPED PREFETCHES: 0
PSCL5 PREFETCHES SAME FILL-ORIGIN LEVEL: 0 DIFFERENT FILL-ORIGIN LEVEL: 0

PSCL4 TOTAL     ACCESS:     236946  HIT:     236248  MISS:        698  HIT %:    99.7054  MISS %:   0.294582   MPKI: 0.00349
PSCL4 LOAD TRANSLATION ACCESS:      57405  HIT:      56707  MISS:        698  HIT %:    98.7841  MISS %:    1.21592   MPKI: 0.00349
PSCL4 TRANSLATION FROM L1D PREFETCHER ACCESS:     179541  HIT:     179541  MISS:          0  HIT %:        100  MISS %:          0   MPKI: 0
PSCL4 PREFETCH  REQUESTED:          0  ISSUED:          0  USEFUL:          0  USELESS:          0
PSCL4 USEFUL LOAD PREFETCHES:          0 PREFETCH ISSUED TO LOWER LEVEL:          0  ACCURACY: -nan
PSCL4 TIMELY PREFETCHES:          0 LATE PREFETCHES: 0 DROPPED PREFETCHES: 0
PSCL4 PREFETCHES SAME FILL-ORIGIN LEVEL: 0 DIFFERENT FILL-ORIGIN LEVEL: 0

PSCL3 TOTAL     ACCESS:     261252  HIT:     260554  MISS:        698  HIT %:    99.7328  MISS %:   0.267175   MPKI: 0.00349
PSCL3 LOAD TRANSLATION ACCESS:      58862  HIT:      58164  MISS:        698  HIT %:    98.8142  MISS %:    1.18582   MPKI: 0.00349
PSCL3 TRANSLATION FROM L1D PREFETCHER ACCESS:     202390  HIT:     202390  MISS:          0  HIT %:        100  MISS %:          0   MPKI: 0
PSCL3 PREFETCH  REQUESTED:          0  ISSUED:          0  USEFUL:          0  USELESS:          0
PSCL3 USEFUL LOAD PREFETCHES:          0 PREFETCH ISSUED TO LOWER LEVEL:          0  ACCURACY: -nan
PSCL3 TIMELY PREFETCHES:          0 LATE PREFETCHES: 0 DROPPED PREFETCHES: 0
PSCL3 PREFETCHES SAME FILL-ORIGIN LEVEL: 0 DIFFERENT FILL-ORIGIN LEVEL: 0

PSCL2 TOTAL     ACCESS:      92877  HIT:      63085  MISS:      29792  HIT %:    67.9232  MISS %:    32.0768   MPKI: 0.14896
PSCL2 LOAD TRANSLATION ACCESS:      60492  HIT:      30700  MISS:      29792  HIT %:    50.7505  MISS %:    49.2495   MPKI: 0.14896
PSCL2 TRANSLATION FROM L1D PREFETCHER ACCESS:      32385  HIT:      32385  MISS:          0  HIT %:        100  MISS %:          0   MPKI: 0
PSCL2 PREFETCH  REQUESTED:          0  ISSUED:          0  USEFUL:          0  USELESS:          0
PSCL2 USEFUL LOAD PREFETCHES:          0 PREFETCH ISSUED TO LOWER LEVEL:          0  ACCURACY: -nan
PSCL2 TIMELY PREFETCHES:          0 LATE PREFETCHES: 0 DROPPED PREFETCHES: 0
PSCL2 PREFETCHES SAME FILL-ORIGIN LEVEL: 0 DIFFERENT FILL-ORIGIN LEVEL: 0

LLC TOTAL     ACCESS:    1260596  HIT:    1207055  MISS:      53541  HIT %:    95.7527  MISS %:    4.24728   MPKI: 0.267705
LLC LOAD      ACCESS:     906471  HIT:     864954  MISS:      41517  HIT %:    95.4199  MISS %:    4.58007   MPKI: 0.207585
LLC RFO       ACCESS:      66272  HIT:      62243  MISS:       4029  HIT %:    93.9205  MISS %:    6.07949   MPKI: 0.020145
LLC PREFETCH  ACCESS:     124411  HIT:     119603  MISS:       4808  HIT %:    96.1354  MISS %:    3.86461   MPKI: 0.02404
AGUS PREFETCH L1 MISS: 0
LLC WRITEBACK ACCESS:     100541  HIT:     100309  MISS:        232  HIT %:    99.7692  MISS %:   0.230752   MPKI: 0.00116
LLC LOAD TRANSLATION ACCESS:      39710  HIT:      37379  MISS:       2331  HIT %:    94.1299  MISS %:    5.87006   MPKI: 0.011655
LLC TRANSLATION FROM L1D PREFETCHER ACCESS:      23191  HIT:      22567  MISS:        624  HIT %:    97.3093  MISS %:     2.6907   MPKI: 0.00312
LLC PREFETCH  REQUESTED:          0  ISSUED:          0  USEFUL:       1120  USELESS:       4474
LLC USEFUL LOAD PREFETCHES:       1120 PREFETCH ISSUED TO LOWER LEVEL:       4808  ACCURACY: 23.2945
LLC TIMELY PREFETCHES:       1120 LATE PREFETCHES: 0 DROPPED PREFETCHES: 0
LLC PREFETCHES SAME FILL-ORIGIN LEVEL: 0 DIFFERENT FILL-ORIGIN LEVEL: 0
LLC AVERAGE MISS LATENCY: 140.966 cycles
LLC RQ	ACCESS:    1035646	FORWARD:          0	MERGED:          0	TO_CACHE:    1035644
LLC WQ	ACCESS:     100541	FORWARD:          2	MERGED:          0	TO_CACHE:     100541
LLC PQ	ACCESS:     124411	FORWARD:          0	MERGED:          0	TO_CACHE:     124411

LLC Dense regions hint to LLC: 0

RAW hits: 1418220
Loads Generated: 47994510
Loads sent to L1D: 46576290
Stores Generated: 26999505
Stores sent to L1D: 26999502
Major fault: 0 Minor fault: 4375
Allocated PAGES: 4375
Completed 

DRAM Statistics
 CHANNEL 0
 RQ ROW_BUFFER_HIT:      16516  ROW_BUFFER_MISS:      36793
 DBUS_CONGESTED:         33
 WQ ROW_BUFFER_HIT:        508  ROW_BUFFER_MISS:       4369  FULL:          0

 AVG_CONGESTED_CYCLE: 4
 All warmup complete: 2
Channel 0 Bank busy for read cycles: 0
Channel 0 Bank busy for write cycles: 0
Channel 0
Rank 0
0banks busy for read cycles: 642502729
0banks busy for write cycles: 3662
1banks busy for read cycles: 3864911
1banks busy for write cycles: 540803
2banks busy for read cycles: 475231
2banks busy for write cycles: 70348
3banks busy for read cycles: 155911
3banks busy for write cycles: 21006
4banks busy for read cycles: 94827
4banks busy for write cycles: 11387
5banks busy for read cycles: 54000
5banks busy for write cycles: 3877
6banks busy for read cycles: 35646
6banks busy for write cycles: 1782
7banks busy for read cycles: 20172
7banks busy for write cycles: 990
8banks busy for read cycles: 7204
8banks busy for write cycles: 820

CPU 0 Branch Prediction Accuracy: 99.8132% MPKI: 0.33529 Average ROB Occupancy at Mispredict: 49.1368
Branch types
NOT_BRANCH: 164101733 82.0509%
BRANCH_DIRECT_JUMP: 2073765 1.03688%
BRANCH_INDIRECT: 12278071 6.13904%
BRANCH_CONDITIONAL: 12296955 6.14848%
BRANCH_DIRECT_CALL: 3898896 1.94945%
BRANCH_INDIRECT_CALL: 725884 0.362942%
BRANCH_RETURN: 4624750 2.31237%
BRANCH_OTHER: 0 0%

DRAM PAGES: 1048576
Allocated PAGES: 4375
