
*** ChampSim Multicore Out-of-Order Simulator ***

Warmup Instructions: 50000000
Simulation Instructions: 200000000
Number of CPUs: 1
LLC sets: 2048
LLC ways: 16
Off-chip DRAM Size: 4096 MB Channels: 1 Width: 64-bit Data Rate: 6400 MT/s
CPU 0 runs traces/spec2k17/srv_36.champsimtrace.xz
.xz
BTB has LRU replacement policy
ITLB has LRU replacement policy
DTLB has LRU replacement policy
STLB has LRU replacement policy
L1I has LRU replacement policy
L1D has LRU replacement policy
Initialize SRRIP state for L2C
Initialize DRRIP state for LLC
Heartbeat CPU 0 instructions: 10000001 cycles: 2945651 heartbeat IPC: 3.39484 cumulative IPC: 3.39484 (Simulation time: 0 hr 0 min 27 sec) 
Heartbeat CPU 0 instructions: 20000003 cycles: 5887551 heartbeat IPC: 3.39916 cumulative IPC: 3.397 (Simulation time: 0 hr 0 min 53 sec) 
Heartbeat CPU 0 instructions: 30000000 cycles: 8831044 heartbeat IPC: 3.39732 cumulative IPC: 3.39711 (Simulation time: 0 hr 1 min 19 sec) 
*** Reached end of trace for Core: 0 Repeating trace: traces/spec2k17/srv_36.champsimtrace.xz
Heartbeat CPU 0 instructions: 40000001 cycles: 11777906 heartbeat IPC: 3.39344 cumulative IPC: 3.39619 (Simulation time: 0 hr 1 min 45 sec) 
Heartbeat CPU 0 instructions: 50000002 cycles: 14726517 heartbeat IPC: 3.39143 cumulative IPC: 3.39524 (Simulation time: 0 hr 2 min 12 sec) 

Warmup complete CPU 0 instructions: 50000002 cycles: 14726517 (Simulation time: 0 hr 2 min 12 sec) 

Heartbeat CPU 0 instructions: 60000003 cycles: 34339810 heartbeat IPC: 0.509858 cumulative IPC: 0.509858 (Simulation time: 0 hr 2 min 59 sec) 
*** Reached end of trace for Core: 0 Repeating trace: traces/spec2k17/srv_36.champsimtrace.xz
Heartbeat CPU 0 instructions: 70000001 cycles: 53871468 heartbeat IPC: 0.511989 cumulative IPC: 0.510922 (Simulation time: 0 hr 3 min 46 sec) 
Heartbeat CPU 0 instructions: 80000002 cycles: 73356837 heartbeat IPC: 0.513206 cumulative IPC: 0.511681 (Simulation time: 0 hr 4 min 31 sec) 
Heartbeat CPU 0 instructions: 90000000 cycles: 92800119 heartbeat IPC: 0.514316 cumulative IPC: 0.512337 (Simulation time: 0 hr 5 min 15 sec) 
*** Reached end of trace for Core: 0 Repeating trace: traces/spec2k17/srv_36.champsimtrace.xz
Heartbeat CPU 0 instructions: 100000000 cycles: 112210173 heartbeat IPC: 0.515197 cumulative IPC: 0.512906 (Simulation time: 0 hr 6 min 0 sec) 
Heartbeat CPU 0 instructions: 110000000 cycles: 131580357 heartbeat IPC: 0.516257 cumulative IPC: 0.513462 (Simulation time: 0 hr 6 min 44 sec) 
Heartbeat CPU 0 instructions: 120000000 cycles: 150920457 heartbeat IPC: 0.51706 cumulative IPC: 0.513973 (Simulation time: 0 hr 7 min 28 sec) 
*** Reached end of trace for Core: 0 Repeating trace: traces/spec2k17/srv_36.champsimtrace.xz
Heartbeat CPU 0 instructions: 130000000 cycles: 170289912 heartbeat IPC: 0.516277 cumulative IPC: 0.51426 (Simulation time: 0 hr 8 min 13 sec) 
Heartbeat CPU 0 instructions: 140000000 cycles: 189639810 heartbeat IPC: 0.516799 cumulative IPC: 0.514541 (Simulation time: 0 hr 8 min 57 sec) 
Heartbeat CPU 0 instructions: 150000003 cycles: 209047172 heartbeat IPC: 0.515269 cumulative IPC: 0.514613 (Simulation time: 0 hr 9 min 42 sec) 
Heartbeat CPU 0 instructions: 160000001 cycles: 228328260 heartbeat IPC: 0.518643 cumulative IPC: 0.514977 (Simulation time: 0 hr 10 min 27 sec) 
*** Reached end of trace for Core: 0 Repeating trace: traces/spec2k17/srv_36.champsimtrace.xz
Heartbeat CPU 0 instructions: 170000001 cycles: 247686327 heartbeat IPC: 0.516581 cumulative IPC: 0.51511 (Simulation time: 0 hr 11 min 12 sec) 
Heartbeat CPU 0 instructions: 180000000 cycles: 266978369 heartbeat IPC: 0.518348 cumulative IPC: 0.515358 (Simulation time: 0 hr 11 min 56 sec) 
Heartbeat CPU 0 instructions: 190000000 cycles: 286311395 heartbeat IPC: 0.51725 cumulative IPC: 0.515493 (Simulation time: 0 hr 12 min 41 sec) 
*** Reached end of trace for Core: 0 Repeating trace: traces/spec2k17/srv_36.champsimtrace.xz
Heartbeat CPU 0 instructions: 200000002 cycles: 305686892 heartbeat IPC: 0.516116 cumulative IPC: 0.515534 (Simulation time: 0 hr 13 min 25 sec) 
Heartbeat CPU 0 instructions: 210000001 cycles: 325014498 heartbeat IPC: 0.517395 cumulative IPC: 0.51565 (Simulation time: 0 hr 14 min 11 sec) 
Heartbeat CPU 0 instructions: 220000000 cycles: 344335798 heartbeat IPC: 0.517563 cumulative IPC: 0.515762 (Simulation time: 0 hr 14 min 55 sec) 
*** Reached end of trace for Core: 0 Repeating trace: traces/spec2k17/srv_36.champsimtrace.xz
Heartbeat CPU 0 instructions: 230000001 cycles: 363692735 heartbeat IPC: 0.516611 cumulative IPC: 0.515809 (Simulation time: 0 hr 15 min 41 sec) 
Heartbeat CPU 0 instructions: 240000002 cycles: 383015323 heartbeat IPC: 0.517529 cumulative IPC: 0.515899 (Simulation time: 0 hr 16 min 26 sec) 
Heartbeat CPU 0 instructions: 250000001 cycles: 402290657 heartbeat IPC: 0.518798 cumulative IPC: 0.516044 (Simulation time: 0 hr 17 min 10 sec) 
Finished CPU 0 instructions: 200000000 cycles: 387564141 cumulative IPC: 0.516044 (Simulation time: 0 hr 17 min 10 sec) 

ChampSim completed all CPUs

Region of Interest Statistics

CPU 0 cumulative IPC: 0.516044 instructions: 200000000 cycles: 387564141
ITLB TOTAL     ACCESS:   33769710  HIT:   32234707  MISS:    1535003  HIT %:    95.4545  MISS %:     4.5455   MPKI: 7.67502
ITLB LOAD TRANSLATION ACCESS:   33769710  HIT:   32234707  MISS:    1535003  HIT %:    95.4545  MISS %:     4.5455   MPKI: 7.67502
ITLB PREFETCH  REQUESTED:          0  ISSUED:          0  USEFUL:          0  USELESS:          0
ITLB USEFUL LOAD PREFETCHES:          0 PREFETCH ISSUED TO LOWER LEVEL:          0  ACCURACY: -nan
ITLB TIMELY PREFETCHES:          0 LATE PREFETCHES: 0 DROPPED PREFETCHES: 0
ITLB PREFETCHES SAME FILL-ORIGIN LEVEL: 0 DIFFERENT FILL-ORIGIN LEVEL: 0
ITLB AVERAGE MISS LATENCY: 9.2122 cycles
ITLB RQ	ACCESS:   40653158	FORWARD:          0	MERGED:    6389206	TO_CACHE:   34263952

DTLB TOTAL     ACCESS:   39953076  HIT:   38439541  MISS:    1513535  HIT %:    96.2117  MISS %:    3.78828   MPKI: 7.56768
DTLB LOAD TRANSLATION ACCESS:   39953076  HIT:   38439541  MISS:    1513535  HIT %:    96.2117  MISS %:    3.78828   MPKI: 7.56768
DTLB PREFETCH  REQUESTED:          0  ISSUED:          0  USEFUL:          0  USELESS:          0
DTLB USEFUL LOAD PREFETCHES:          0 PREFETCH ISSUED TO LOWER LEVEL:          0  ACCURACY: -nan
DTLB TIMELY PREFETCHES:          0 LATE PREFETCHES: 0 DROPPED PREFETCHES: 0
DTLB PREFETCHES SAME FILL-ORIGIN LEVEL: 0 DIFFERENT FILL-ORIGIN LEVEL: 0
DTLB AVERAGE MISS LATENCY: 14.8504 cycles
DTLB RQ	ACCESS:   61067872	FORWARD:          0	MERGED:   20732142	TO_CACHE:   40335730

STLB TOTAL     ACCESS:    9792236  HIT:    9711906  MISS:      80330  HIT %:    99.1797  MISS %:   0.820344   MPKI: 0.40165
STLB LOAD TRANSLATION ACCESS:    3048538  HIT:    2971209  MISS:      77329  HIT %:    97.4634  MISS %:    2.53659   MPKI: 0.386645
STLB TRANSLATION FROM L1D PREFETCHER ACCESS:    6743698  HIT:    6740697  MISS:       3001  HIT %:    99.9555  MISS %:  0.0445008   MPKI: 0.015005
STLB PREFETCH  REQUESTED:          0  ISSUED:          0  USEFUL:       2893  USELESS:        103
STLB USEFUL LOAD PREFETCHES:       2893 PREFETCH ISSUED TO LOWER LEVEL:          0  ACCURACY: inf
STLB TIMELY PREFETCHES:       2893 LATE PREFETCHES: 1099 DROPPED PREFETCHES: 60741
STLB PREFETCHES SAME FILL-ORIGIN LEVEL: 0 DIFFERENT FILL-ORIGIN LEVEL: 0
STLB AVERAGE MISS LATENCY: 146761 cycles
STLB RQ	ACCESS:   12553152	FORWARD:          0	MERGED:    2697456	TO_CACHE:    9855696

STLB Hit, L1D data hit: 0
STLB Hit, L2C data hit: 0
STLB Hit, LLC data hit: 0
STLB Hit, LLC data miss: 0
STLB STLB hints to L2: 0
L1D TOTAL     ACCESS:   57134929  HIT:   50126170  MISS:    7008759  HIT %:     87.733  MISS %:     12.267   MPKI: 35.0438
L1D LOAD      ACCESS:   26683601  HIT:   23804564  MISS:    2879037  HIT %:    89.2105  MISS %:    10.7895   MPKI: 14.3952
L1D RFO       ACCESS:   22359720  HIT:   18655817  MISS:    3703903  HIT %:    83.4349  MISS %:    16.5651   MPKI: 18.5195
L1D PREFETCH  ACCESS:    8091608  HIT:    7665789  MISS:     425819  HIT %:    94.7375  MISS %:    5.26248   MPKI: 2.12909
AGUS PREFETCH L1 MISS: 0
L1D PREFETCH  REQUESTED:   20771894  ISSUED:   20769730  USEFUL:     231821  USELESS:     194024
L1D USEFUL LOAD PREFETCHES:     231821 PREFETCH ISSUED TO LOWER LEVEL:     875036  ACCURACY: 26.4927
L1D TIMELY PREFETCHES:     231821 LATE PREFETCHES: 446959 DROPPED PREFETCHES: 65550
L1D PREFETCHES SAME FILL-ORIGIN LEVEL: 875036 DIFFERENT FILL-ORIGIN LEVEL: 0
L1D AVERAGE MISS LATENCY: 1.40252e+07 cycles
L1D RQ	ACCESS:   45176160	FORWARD:          0	MERGED:   17824721	TO_CACHE:   27073872
L1D WQ	ACCESS:   34191048	FORWARD:     308751	MERGED:     197048	TO_CACHE:   33994000
L1D PQ	ACCESS:   11265116	FORWARD:          0	MERGED:    1729318	TO_CACHE:    9504614

L1D UNIQUE REGIONS ACCESSED: 0
L1D REGIONS CONFLICTS: 0
L1D Cross Page Prefetch Requests: 4623181
L1D Same Page Prefetch Requests: 8388195
L1D ROI Sum of L1D PQ occupancy: 141273362
L1D PREFETCHES PUSHED FROM L2C: 0
L1I TOTAL     ACCESS:   38004587  HIT:   28945592  MISS:    9058995  HIT %:    76.1634  MISS %:    23.8366   MPKI: 45.295
L1I LOAD      ACCESS:   38004587  HIT:   28945592  MISS:    9058995  HIT %:    76.1634  MISS %:    23.8366   MPKI: 45.295
L1I PREFETCH  REQUESTED:          0  ISSUED:          0  USEFUL:          0  USELESS:          0
L1I USEFUL LOAD PREFETCHES:          0 PREFETCH ISSUED TO LOWER LEVEL:          0  ACCURACY: -nan
L1I TIMELY PREFETCHES:          0 LATE PREFETCHES: 0 DROPPED PREFETCHES: 0
L1I PREFETCHES SAME FILL-ORIGIN LEVEL: 0 DIFFERENT FILL-ORIGIN LEVEL: 0
L1I AVERAGE MISS LATENCY: 16.6647 cycles
L1I RQ	ACCESS:   58963630	FORWARD:          0	MERGED:   18310472	TO_CACHE:   40653158

BTB TOTAL     ACCESS:   25729048  HIT:   24193613  MISS:    1535435  HIT %:    94.0323  MISS %:    5.96771   MPKI: 7.67718
BTB BRANCH_DIRECT_JUMP	ACCESS:    1654273  HIT:    1644479  MISS:       9794
BTB BRANCH_INDIRECT	ACCESS:    9941101  HIT:    9432728  MISS:     508373
BTB BRANCH_CONDITIONAL	ACCESS:    7321750  HIT:    7308108  MISS:      13642
BTB BRANCH_DIRECT_CALL	ACCESS:    2814711  HIT:    2781382  MISS:      33329
BTB BRANCH_INDIRECT_CALL	ACCESS:     591266  HIT:     480297  MISS:     110969
BTB BRANCH_RETURN	ACCESS:    3405947  HIT:    2546619  MISS:     859328
BTB BRANCH_OTHER ACCESS:          0  HIT:          0  MISS:          0

L2C TOTAL     ACCESS:   20620917  HIT:   13892244  MISS:    6728673  HIT %:    67.3697  MISS %:    32.6303   MPKI: 33.6434
L2C LOAD      ACCESS:   11490998  HIT:    9158189  MISS:    2332809  HIT %:    79.6988  MISS %:    20.3012   MPKI: 11.664
L2C DATA LOAD MPKI: 8.80383
L2C INSTRUCTION LOAD MPKI: 2.86021
L2C RFO       ACCESS:    3701630  HIT:     166197  MISS:    3535433  HIT %:    4.48983  MISS %:    95.5102   MPKI: 17.6772
L2C PREFETCH  ACCESS:     875020  HIT:     205007  MISS:     670013  HIT %:    23.4288  MISS %:    76.5712   MPKI: 3.35006
AGUS PREFETCH L1 MISS: 0
L2C DATA PREFETCH MPKI: 3.35006
L2C INSTRUCTION PREFETCH MPKI: 0
L2C WRITEBACK ACCESS:    4366376  HIT:    4237038  MISS:     129338  HIT %:    97.0379  MISS %:    2.96214   MPKI: 0.64669
L2C LOAD TRANSLATION ACCESS:      87733  HIT:      47705  MISS:      40028  HIT %:    54.3752  MISS %:    45.6248   MPKI: 0.20014
L2C TRANSLATION FROM L1D PREFETCHER ACCESS:      99160  HIT:      78108  MISS:      21052  HIT %:    78.7697  MISS %:    21.2303   MPKI: 0.10526
L2C PREFETCH  REQUESTED:          0  ISSUED:          0  USEFUL:      30820  USELESS:     660171
L2C USEFUL LOAD PREFETCHES:      30820 PREFETCH ISSUED TO LOWER LEVEL:     670013  ACCURACY: 4.59991
L2C TIMELY PREFETCHES:      30820 LATE PREFETCHES: 0 DROPPED PREFETCHES: 0
L2C PREFETCHES SAME FILL-ORIGIN LEVEL: 0 DIFFERENT FILL-ORIGIN LEVEL: 0
L2C AVERAGE MISS LATENCY: 156.668 cycles
L2C RQ	ACCESS:   15379611	FORWARD:          0	MERGED:          0	TO_CACHE:   15379521
L2C WQ	ACCESS:    4366376	FORWARD:        106	MERGED:          0	TO_CACHE:    4366376
L2C PQ	ACCESS:     875036	FORWARD:          0	MERGED:          0	TO_CACHE:     875020

L2C Instructions Evicting Data 518125
L2C Translations Evicting Data 55868
L2C Data Evicting Data 5403789
L2C Instructions Evicting Instructions 49043
L2C Translations Evicting Instructions 4621
L2C Data Evicting Instructions 507962
L2C Instructions Evicting Translations 4874
L2C Translations Evicting Translations 591
L2C Data Evicting Translations 54462
L2C Dense regions hint from L2: 0
PSCL5 TOTAL     ACCESS:     134792  HIT:     134792  MISS:          0  HIT %:        100  MISS %:          0   MPKI: 0
PSCL5 LOAD TRANSLATION ACCESS:      76230  HIT:      76230  MISS:          0  HIT %:        100  MISS %:          0   MPKI: 0
PSCL5 TRANSLATION FROM L1D PREFETCHER ACCESS:      58562  HIT:      58562  MISS:          0  HIT %:        100  MISS %:          0   MPKI: 0
PSCL5 PREFETCH  REQUESTED:          0  ISSUED:          0  USEFUL:          0  USELESS:          0
PSCL5 USEFUL LOAD PREFETCHES:          0 PREFETCH ISSUED TO LOWER LEVEL:          0  ACCURACY: -nan
PSCL5 TIMELY PREFETCHES:          0 LATE PREFETCHES: 0 DROPPED PREFETCHES: 0
PSCL5 PREFETCHES SAME FILL-ORIGIN LEVEL: 0 DIFFERENT FILL-ORIGIN LEVEL: 0

PSCL4 TOTAL     ACCESS:     119203  HIT:     118960  MISS:        243  HIT %:    99.7961  MISS %:   0.203854   MPKI: 0.001215
PSCL4 LOAD TRANSLATION ACCESS:      69552  HIT:      69309  MISS:        243  HIT %:    99.6506  MISS %:   0.349379   MPKI: 0.001215
PSCL4 TRANSLATION FROM L1D PREFETCHER ACCESS:      49651  HIT:      49651  MISS:          0  HIT %:        100  MISS %:          0   MPKI: 0
PSCL4 PREFETCH  REQUESTED:          0  ISSUED:          0  USEFUL:          0  USELESS:          0
PSCL4 USEFUL LOAD PREFETCHES:          0 PREFETCH ISSUED TO LOWER LEVEL:          0  ACCURACY: -nan
PSCL4 TIMELY PREFETCHES:          0 LATE PREFETCHES: 0 DROPPED PREFETCHES: 0
PSCL4 PREFETCHES SAME FILL-ORIGIN LEVEL: 0 DIFFERENT FILL-ORIGIN LEVEL: 0

PSCL3 TOTAL     ACCESS:     119686  HIT:     118634  MISS:       1052  HIT %:     99.121  MISS %:   0.878967   MPKI: 0.00526
PSCL3 LOAD TRANSLATION ACCESS:      71382  HIT:      70330  MISS:       1052  HIT %:    98.5262  MISS %:    1.47376   MPKI: 0.00526
PSCL3 TRANSLATION FROM L1D PREFETCHER ACCESS:      48304  HIT:      48304  MISS:          0  HIT %:        100  MISS %:          0   MPKI: 0
PSCL3 PREFETCH  REQUESTED:          0  ISSUED:          0  USEFUL:          0  USELESS:          0
PSCL3 USEFUL LOAD PREFETCHES:          0 PREFETCH ISSUED TO LOWER LEVEL:          0  ACCURACY: -nan
PSCL3 TIMELY PREFETCHES:          0 LATE PREFETCHES: 0 DROPPED PREFETCHES: 0
PSCL3 PREFETCHES SAME FILL-ORIGIN LEVEL: 0 DIFFERENT FILL-ORIGIN LEVEL: 0

PSCL2 TOTAL     ACCESS:     100482  HIT:      89790  MISS:      10692  HIT %:    89.3593  MISS %:    10.6407   MPKI: 0.05346
PSCL2 LOAD TRANSLATION ACCESS:      76657  HIT:      65965  MISS:      10692  HIT %:    86.0522  MISS %:    13.9478   MPKI: 0.05346
PSCL2 TRANSLATION FROM L1D PREFETCHER ACCESS:      23825  HIT:      23825  MISS:          0  HIT %:        100  MISS %:          0   MPKI: 0
PSCL2 PREFETCH  REQUESTED:          0  ISSUED:          0  USEFUL:          0  USELESS:          0
PSCL2 USEFUL LOAD PREFETCHES:          0 PREFETCH ISSUED TO LOWER LEVEL:          0  ACCURACY: -nan
PSCL2 TIMELY PREFETCHES:          0 LATE PREFETCHES: 0 DROPPED PREFETCHES: 0
PSCL2 PREFETCHES SAME FILL-ORIGIN LEVEL: 0 DIFFERENT FILL-ORIGIN LEVEL: 0

LLC TOTAL     ACCESS:   10636205  HIT:    4268717  MISS:    6367488  HIT %:    40.1338  MISS %:    59.8662   MPKI: 31.8374
LLC LOAD      ACCESS:    2332808  HIT:    1565865  MISS:     766943  HIT %:    67.1236  MISS %:    32.8764   MPKI: 3.83472
LLC RFO       ACCESS:    3535416  HIT:     984172  MISS:    2551244  HIT %:    27.8375  MISS %:    72.1625   MPKI: 12.7562
LLC PREFETCH  ACCESS:     670013  HIT:     141603  MISS:     528410  HIT %:    21.1344  MISS %:    78.8656   MPKI: 2.64205
AGUS PREFETCH L1 MISS: 0
LLC WRITEBACK ACCESS:    4036888  HIT:    1555979  MISS:    2480909  HIT %:     38.544  MISS %:     61.456   MPKI: 12.4045
LLC LOAD TRANSLATION ACCESS:      40028  HIT:       8554  MISS:      31474  HIT %:      21.37  MISS %:      78.63   MPKI: 0.15737
LLC TRANSLATION FROM L1D PREFETCHER ACCESS:      21052  HIT:      12544  MISS:       8508  HIT %:    59.5858  MISS %:    40.4142   MPKI: 0.04254
LLC PREFETCH  REQUESTED:          0  ISSUED:          0  USEFUL:       1951  USELESS:     535114
LLC USEFUL LOAD PREFETCHES:       1951 PREFETCH ISSUED TO LOWER LEVEL:     528410  ACCURACY: 0.369221
LLC TIMELY PREFETCHES:       1951 LATE PREFETCHES: 0 DROPPED PREFETCHES: 0
LLC PREFETCHES SAME FILL-ORIGIN LEVEL: 0 DIFFERENT FILL-ORIGIN LEVEL: 0
LLC AVERAGE MISS LATENCY: 134.461 cycles
LLC RQ	ACCESS:    5929322	FORWARD:          0	MERGED:          0	TO_CACHE:    5929304
LLC WQ	ACCESS:    4036888	FORWARD:         18	MERGED:          0	TO_CACHE:    4036888
LLC PQ	ACCESS:     670013	FORWARD:          0	MERGED:          0	TO_CACHE:     670013

LLC Dense regions hint to LLC: 0

RAW hits: 2442035
Loads Generated: 47618197
Loads sent to L1D: 45176160
Stores Generated: 34191042
Stores sent to L1D: 34191048
Major fault: 0 Minor fault: 9094
Allocated PAGES: 9094
Completed 

DRAM Statistics
 CHANNEL 0
 RQ ROW_BUFFER_HIT:    1853602  ROW_BUFFER_MISS:    2032619
 DBUS_CONGESTED:       2319
 WQ ROW_BUFFER_HIT:     530230  ROW_BUFFER_MISS:    2089713  FULL:      59080

 AVG_CONGESTED_CYCLE: 3
 All warmup complete: 2
Channel 0 Bank busy for read cycles: 0
Channel 0 Bank busy for write cycles: 0
Channel 0
Rank 0
0banks busy for read cycles: 170113319
0banks busy for write cycles: 273106
1banks busy for read cycles: 33744757
1banks busy for write cycles: 38137148
2banks busy for read cycles: 13717596
2banks busy for write cycles: 13872146
3banks busy for read cycles: 15762773
3banks busy for write cycles: 6523097
4banks busy for read cycles: 5868437
4banks busy for write cycles: 4161325
5banks busy for read cycles: 5012271
5banks busy for write cycles: 3376191
6banks busy for read cycles: 5925967
6banks busy for write cycles: 3264129
7banks busy for read cycles: 8743009
7banks busy for write cycles: 5734399
8banks busy for read cycles: 18833596
8banks busy for write cycles: 34500876

CPU 0 Branch Prediction Accuracy: 99.9484% MPKI: 0.07887 Average ROB Occupancy at Mispredict: 120.807
Branch types
NOT_BRANCH: 169412810 84.7064%
BRANCH_DIRECT_JUMP: 1654273 0.827137%
BRANCH_INDIRECT: 9941101 4.97055%
BRANCH_CONDITIONAL: 12179884 6.08994%
BRANCH_DIRECT_CALL: 2814711 1.40736%
BRANCH_INDIRECT_CALL: 591266 0.295633%
BRANCH_RETURN: 3405947 1.70297%
BRANCH_OTHER: 0 0%

DRAM PAGES: 1048576
Allocated PAGES: 9094
