
*** ChampSim Multicore Out-of-Order Simulator ***

Warmup Instructions: 50000000
Simulation Instructions: 200000000
Number of CPUs: 1
LLC sets: 2048
LLC ways: 16
Off-chip DRAM Size: 4096 MB Channels: 1 Width: 64-bit Data Rate: 6400 MT/s
CPU 0 runs traces/spec2k17/srv_11.champsimtrace.xz
.xz
BTB has LRU replacement policy
ITLB has LRU replacement policy
DTLB has LRU replacement policy
STLB has LRU replacement policy
L1I has LRU replacement policy
L1D has LRU replacement policy
Initialize SRRIP state for L2C
Initialize DRRIP state for LLC
Heartbeat CPU 0 instructions: 10000000 cycles: 3216656 heartbeat IPC: 3.10882 cumulative IPC: 3.10882 (Simulation time: 0 hr 0 min 29 sec) 
Heartbeat CPU 0 instructions: 20000002 cycles: 7383148 heartbeat IPC: 2.4001 cumulative IPC: 2.70887 (Simulation time: 0 hr 1 min 4 sec) 
Heartbeat CPU 0 instructions: 30000001 cycles: 10158605 heartbeat IPC: 3.60301 cumulative IPC: 2.95316 (Simulation time: 0 hr 1 min 28 sec) 
*** Reached end of trace for Core: 0 Repeating trace: traces/spec2k17/srv_11.champsimtrace.xz
Heartbeat CPU 0 instructions: 40000001 cycles: 13228367 heartbeat IPC: 3.25758 cumulative IPC: 3.0238 (Simulation time: 0 hr 1 min 52 sec) 
Heartbeat CPU 0 instructions: 50000000 cycles: 17526447 heartbeat IPC: 2.32662 cumulative IPC: 2.85283 (Simulation time: 0 hr 2 min 26 sec) 

Warmup complete CPU 0 instructions: 50000004 cycles: 17526448 (Simulation time: 0 hr 2 min 26 sec) 

Heartbeat CPU 0 instructions: 60000003 cycles: 41204503 heartbeat IPC: 0.422332 cumulative IPC: 0.422332 (Simulation time: 0 hr 3 min 1 sec) 
*** Reached end of trace for Core: 0 Repeating trace: traces/spec2k17/srv_11.champsimtrace.xz
Heartbeat CPU 0 instructions: 70000000 cycles: 65120552 heartbeat IPC: 0.418129 cumulative IPC: 0.42022 (Simulation time: 0 hr 3 min 37 sec) 
Heartbeat CPU 0 instructions: 80000001 cycles: 101921454 heartbeat IPC: 0.271733 cumulative IPC: 0.355471 (Simulation time: 0 hr 4 min 29 sec) 
Heartbeat CPU 0 instructions: 90000003 cycles: 126424792 heartbeat IPC: 0.408108 cumulative IPC: 0.367315 (Simulation time: 0 hr 5 min 5 sec) 
*** Reached end of trace for Core: 0 Repeating trace: traces/spec2k17/srv_11.champsimtrace.xz
Heartbeat CPU 0 instructions: 100000003 cycles: 149940495 heartbeat IPC: 0.425248 cumulative IPC: 0.377603 (Simulation time: 0 hr 5 min 40 sec) 
Heartbeat CPU 0 instructions: 110000000 cycles: 185891753 heartbeat IPC: 0.278154 cumulative IPC: 0.356368 (Simulation time: 0 hr 6 min 33 sec) 
Heartbeat CPU 0 instructions: 120000000 cycles: 211300154 heartbeat IPC: 0.393571 cumulative IPC: 0.361246 (Simulation time: 0 hr 7 min 11 sec) 
*** Reached end of trace for Core: 0 Repeating trace: traces/spec2k17/srv_11.champsimtrace.xz
Heartbeat CPU 0 instructions: 130000002 cycles: 234780674 heartbeat IPC: 0.425885 cumulative IPC: 0.368232 (Simulation time: 0 hr 7 min 46 sec) 
Heartbeat CPU 0 instructions: 140000002 cycles: 269799198 heartbeat IPC: 0.285563 cumulative IPC: 0.356757 (Simulation time: 0 hr 8 min 36 sec) 
Heartbeat CPU 0 instructions: 150000002 cycles: 295925455 heartbeat IPC: 0.382757 cumulative IPC: 0.359197 (Simulation time: 0 hr 9 min 14 sec) 
*** Reached end of trace for Core: 0 Repeating trace: traces/spec2k17/srv_11.champsimtrace.xz
Heartbeat CPU 0 instructions: 160000003 cycles: 319569902 heartbeat IPC: 0.422932 cumulative IPC: 0.364186 (Simulation time: 0 hr 9 min 50 sec) 
Heartbeat CPU 0 instructions: 170000000 cycles: 353690955 heartbeat IPC: 0.293074 cumulative IPC: 0.356968 (Simulation time: 0 hr 10 min 38 sec) 
Heartbeat CPU 0 instructions: 180000001 cycles: 380725353 heartbeat IPC: 0.369899 cumulative IPC: 0.357931 (Simulation time: 0 hr 11 min 18 sec) 
*** Reached end of trace for Core: 0 Repeating trace: traces/spec2k17/srv_11.champsimtrace.xz
Heartbeat CPU 0 instructions: 190000003 cycles: 404174940 heartbeat IPC: 0.426447 cumulative IPC: 0.362086 (Simulation time: 0 hr 11 min 54 sec) 
Heartbeat CPU 0 instructions: 200000000 cycles: 437533101 heartbeat IPC: 0.299777 cumulative IPC: 0.357137 (Simulation time: 0 hr 12 min 42 sec) 
Heartbeat CPU 0 instructions: 210000001 cycles: 465448981 heartbeat IPC: 0.358219 cumulative IPC: 0.357205 (Simulation time: 0 hr 13 min 25 sec) 
*** Reached end of trace for Core: 0 Repeating trace: traces/spec2k17/srv_11.champsimtrace.xz
Heartbeat CPU 0 instructions: 220000000 cycles: 488932904 heartbeat IPC: 0.425823 cumulative IPC: 0.360623 (Simulation time: 0 hr 14 min 1 sec) 
Heartbeat CPU 0 instructions: 230000000 cycles: 521319256 heartbeat IPC: 0.308772 cumulative IPC: 0.35729 (Simulation time: 0 hr 14 min 48 sec) 
Heartbeat CPU 0 instructions: 240000002 cycles: 550157740 heartbeat IPC: 0.346759 cumulative IPC: 0.35672 (Simulation time: 0 hr 15 min 33 sec) 
*** Reached end of trace for Core: 0 Repeating trace: traces/spec2k17/srv_11.champsimtrace.xz
Heartbeat CPU 0 instructions: 250000002 cycles: 573591385 heartbeat IPC: 0.426737 cumulative IPC: 0.35967 (Simulation time: 0 hr 16 min 9 sec) 
Finished CPU 0 instructions: 200000002 cycles: 556064938 cumulative IPC: 0.35967 (Simulation time: 0 hr 16 min 9 sec) 

ChampSim completed all CPUs

Region of Interest Statistics

CPU 0 cumulative IPC: 0.35967 instructions: 200000002 cycles: 556064938
ITLB TOTAL     ACCESS:   37990712  HIT:   37451235  MISS:     539477  HIT %:      98.58  MISS %:    1.42002   MPKI: 2.69738
ITLB LOAD TRANSLATION ACCESS:   37990712  HIT:   37451235  MISS:     539477  HIT %:      98.58  MISS %:    1.42002   MPKI: 2.69738
ITLB PREFETCH  REQUESTED:          0  ISSUED:          0  USEFUL:          0  USELESS:          0
ITLB USEFUL LOAD PREFETCHES:          0 PREFETCH ISSUED TO LOWER LEVEL:          0  ACCURACY: -nan
ITLB TIMELY PREFETCHES:          0 LATE PREFETCHES: 0 DROPPED PREFETCHES: 0
ITLB PREFETCHES SAME FILL-ORIGIN LEVEL: 0 DIFFERENT FILL-ORIGIN LEVEL: 0
ITLB AVERAGE MISS LATENCY: 16.0502 cycles
ITLB RQ	ACCESS:   43893099	FORWARD:          0	MERGED:    5773658	TO_CACHE:   38119441

DTLB TOTAL     ACCESS:   43907614  HIT:   34920943  MISS:    8986671  HIT %:    79.5328  MISS %:    20.4672   MPKI: 44.9334
DTLB LOAD TRANSLATION ACCESS:   43907614  HIT:   34920943  MISS:    8986671  HIT %:    79.5328  MISS %:    20.4672   MPKI: 44.9334
DTLB PREFETCH  REQUESTED:          0  ISSUED:          0  USEFUL:          0  USELESS:          0
DTLB USEFUL LOAD PREFETCHES:          0 PREFETCH ISSUED TO LOWER LEVEL:          0  ACCURACY: -nan
DTLB TIMELY PREFETCHES:          0 LATE PREFETCHES: 0 DROPPED PREFETCHES: 0
DTLB PREFETCHES SAME FILL-ORIGIN LEVEL: 0 DIFFERENT FILL-ORIGIN LEVEL: 0
DTLB AVERAGE MISS LATENCY: 8.13771 cycles
DTLB RQ	ACCESS:   58960680	FORWARD:          0	MERGED:   14869318	TO_CACHE:   44091362

STLB TOTAL     ACCESS:   28621698  HIT:   28301789  MISS:     319909  HIT %:    98.8823  MISS %:    1.11771   MPKI: 1.59954
STLB LOAD TRANSLATION ACCESS:    9526148  HIT:    9212735  MISS:     313413  HIT %:      96.71  MISS %:    3.29003   MPKI: 1.56706
STLB TRANSLATION FROM L1D PREFETCHER ACCESS:   19095550  HIT:   19089054  MISS:       6496  HIT %:     99.966  MISS %:  0.0340184   MPKI: 0.03248
STLB PREFETCH  REQUESTED:          0  ISSUED:          0  USEFUL:       5207  USELESS:       1289
STLB USEFUL LOAD PREFETCHES:       5207 PREFETCH ISSUED TO LOWER LEVEL:          0  ACCURACY: inf
STLB TIMELY PREFETCHES:       5207 LATE PREFETCHES: 1281 DROPPED PREFETCHES: 429940
STLB PREFETCHES SAME FILL-ORIGIN LEVEL: 0 DIFFERENT FILL-ORIGIN LEVEL: 0
STLB AVERAGE MISS LATENCY: 40.2367 cycles
STLB RQ	ACCESS:   37154635	FORWARD:          0	MERGED:    8099519	TO_CACHE:   29055116

STLB Hit, L1D data hit: 0
STLB Hit, L2C data hit: 0
STLB Hit, LLC data hit: 0
STLB Hit, LLC data miss: 0
STLB STLB hints to L2: 0
L1D TOTAL     ACCESS:   78411684  HIT:   65933106  MISS:   12478578  HIT %:    84.0858  MISS %:    15.9142   MPKI: 62.3929
L1D LOAD      ACCESS:   41030741  HIT:   31613988  MISS:    9416753  HIT %:    77.0495  MISS %:    22.9505   MPKI: 47.0838
L1D RFO       ACCESS:   17522475  HIT:   17155976  MISS:     366499  HIT %:    97.9084  MISS %:    2.09159   MPKI: 1.83249
L1D PREFETCH  ACCESS:   19858468  HIT:   17163142  MISS:    2695326  HIT %:    86.4273  MISS %:    13.5727   MPKI: 13.4766
AGUS PREFETCH L1 MISS: 0
L1D PREFETCH  REQUESTED:   56650273  ISSUED:   56647930  USEFUL:    2589588  USELESS:     105747
L1D USEFUL LOAD PREFETCHES:    2589588 PREFETCH ISSUED TO LOWER LEVEL:    6409496  ACCURACY: 40.4024
L1D TIMELY PREFETCHES:    2589588 LATE PREFETCHES: 3714026 DROPPED PREFETCHES: 486768
L1D PREFETCHES SAME FILL-ORIGIN LEVEL: 6409496 DIFFERENT FILL-ORIGIN LEVEL: 0
L1D AVERAGE MISS LATENCY: 8.99056e+07 cycles
L1D RQ	ACCESS:   54033942	FORWARD:          0	MERGED:   12746887	TO_CACHE:   41130082
L1D WQ	ACCESS:   18064452	FORWARD:     228912	MERGED:     233854	TO_CACHE:   17830598
L1D PQ	ACCESS:   29019443	FORWARD:          0	MERGED:    1319017	TO_CACHE:   27628487

L1D UNIQUE REGIONS ACCESSED: 0
L1D REGIONS CONFLICTS: 0
L1D Cross Page Prefetch Requests: 26636743
L1D Same Page Prefetch Requests: 9492470
L1D ROI Sum of L1D PQ occupancy: 396682070
L1D PREFETCHES PUSHED FROM L2C: 0
L1I TOTAL     ACCESS:   42777544  HIT:   39355402  MISS:    3422142  HIT %:    92.0001  MISS %:    7.99986   MPKI: 17.1107
L1I LOAD      ACCESS:   42777544  HIT:   39355402  MISS:    3422142  HIT %:    92.0001  MISS %:    7.99986   MPKI: 17.1107
L1I PREFETCH  REQUESTED:          0  ISSUED:          0  USEFUL:          0  USELESS:          0
L1I USEFUL LOAD PREFETCHES:          0 PREFETCH ISSUED TO LOWER LEVEL:          0  ACCURACY: -nan
L1I TIMELY PREFETCHES:          0 LATE PREFETCHES: 0 DROPPED PREFETCHES: 0
L1I PREFETCHES SAME FILL-ORIGIN LEVEL: 0 DIFFERENT FILL-ORIGIN LEVEL: 0
L1I AVERAGE MISS LATENCY: 28.4204 cycles
L1I RQ	ACCESS:   65990031	FORWARD:          0	MERGED:   22096932	TO_CACHE:   43893099

BTB TOTAL     ACCESS:   33562539  HIT:   29061289  MISS:    4501250  HIT %:    86.5885  MISS %:    13.4115   MPKI: 22.5062
BTB BRANCH_DIRECT_JUMP	ACCESS:    1685269  HIT:    1483558  MISS:     201711
BTB BRANCH_INDIRECT	ACCESS:   19828015  HIT:   17476346  MISS:    2351669
BTB BRANCH_CONDITIONAL	ACCESS:    4608066  HIT:    4287796  MISS:     320270
BTB BRANCH_DIRECT_CALL	ACCESS:    2993939  HIT:    2599188  MISS:     394751
BTB BRANCH_INDIRECT_CALL	ACCESS:     724221  HIT:     681906  MISS:      42315
BTB BRANCH_RETURN	ACCESS:    3723029  HIT:    2532495  MISS:    1190534
BTB BRANCH_OTHER ACCESS:          0  HIT:          0  MISS:          0

L2C TOTAL     ACCESS:   17703843  HIT:   14966314  MISS:    2737529  HIT %:    84.5371  MISS %:    15.4629   MPKI: 13.6876
L2C LOAD      ACCESS:    9124841  HIT:    6787768  MISS:    2337073  HIT %:    74.3878  MISS %:    25.6122   MPKI: 11.6854
L2C DATA LOAD MPKI: 3.87175
L2C INSTRUCTION LOAD MPKI: 7.81361
L2C RFO       ACCESS:     366355  HIT:     241906  MISS:     124449  HIT %:    66.0305  MISS %:    33.9695   MPKI: 0.622245
L2C PREFETCH  ACCESS:    6409481  HIT:    6347332  MISS:      62149  HIT %:    99.0304  MISS %:   0.969642   MPKI: 0.310745
AGUS PREFETCH L1 MISS: 0
L2C DATA PREFETCH MPKI: 0.310745
L2C INSTRUCTION PREFETCH MPKI: 0
L2C WRITEBACK ACCESS:     811586  HIT:     771681  MISS:      39905  HIT %:    95.0831  MISS %:    4.91692   MPKI: 0.199525
L2C LOAD TRANSLATION ACCESS:     394876  HIT:     248605  MISS:     146271  HIT %:    62.9577  MISS %:    37.0423   MPKI: 0.731355
L2C TRANSLATION FROM L1D PREFETCHER ACCESS:     596704  HIT:     569022  MISS:      27682  HIT %:    95.3608  MISS %:    4.63915   MPKI: 0.13841
L2C PREFETCH  REQUESTED:          0  ISSUED:          0  USEFUL:      20026  USELESS:      69782
L2C USEFUL LOAD PREFETCHES:      20026 PREFETCH ISSUED TO LOWER LEVEL:      62149  ACCURACY: 32.2226
L2C TIMELY PREFETCHES:      20026 LATE PREFETCHES: 0 DROPPED PREFETCHES: 0
L2C PREFETCHES SAME FILL-ORIGIN LEVEL: 0 DIFFERENT FILL-ORIGIN LEVEL: 0
L2C AVERAGE MISS LATENCY: 41.7981 cycles
L2C RQ	ACCESS:   10482804	FORWARD:          0	MERGED:          0	TO_CACHE:   10482776
L2C WQ	ACCESS:     811586	FORWARD:         43	MERGED:          0	TO_CACHE:     811586
L2C PQ	ACCESS:    6409496	FORWARD:          0	MERGED:          0	TO_CACHE:    6409481

L2C Instructions Evicting Data 568755
L2C Translations Evicting Data 63360
L2C Data Evicting Data 355821
L2C Instructions Evicting Instructions 893886
L2C Translations Evicting Instructions 100950
L2C Data Evicting Instructions 543673
L2C Instructions Evicting Translations 100081
L2C Translations Evicting Translations 9643
L2C Data Evicting Translations 61455
L2C Dense regions hint from L2: 0
PSCL5 TOTAL     ACCESS:     710720  HIT:     710720  MISS:          0  HIT %:        100  MISS %:          0   MPKI: 0
PSCL5 LOAD TRANSLATION ACCESS:     312132  HIT:     312132  MISS:          0  HIT %:        100  MISS %:          0   MPKI: 0
PSCL5 TRANSLATION FROM L1D PREFETCHER ACCESS:     398588  HIT:     398588  MISS:          0  HIT %:        100  MISS %:          0   MPKI: 0
PSCL5 PREFETCH  REQUESTED:          0  ISSUED:          0  USEFUL:          0  USELESS:          0
PSCL5 USEFUL LOAD PREFETCHES:          0 PREFETCH ISSUED TO LOWER LEVEL:          0  ACCURACY: -nan
PSCL5 TIMELY PREFETCHES:          0 LATE PREFETCHES: 0 DROPPED PREFETCHES: 0
PSCL5 PREFETCHES SAME FILL-ORIGIN LEVEL: 0 DIFFERENT FILL-ORIGIN LEVEL: 0

PSCL4 TOTAL     ACCESS:     658343  HIT:     657640  MISS:        703  HIT %:    99.8932  MISS %:   0.106783   MPKI: 0.003515
PSCL4 LOAD TRANSLATION ACCESS:     291558  HIT:     290855  MISS:        703  HIT %:    99.7589  MISS %:   0.241118   MPKI: 0.003515
PSCL4 TRANSLATION FROM L1D PREFETCHER ACCESS:     366785  HIT:     366785  MISS:          0  HIT %:        100  MISS %:          0   MPKI: 0
PSCL4 PREFETCH  REQUESTED:          0  ISSUED:          0  USEFUL:          0  USELESS:          0
PSCL4 USEFUL LOAD PREFETCHES:          0 PREFETCH ISSUED TO LOWER LEVEL:          0  ACCURACY: -nan
PSCL4 TIMELY PREFETCHES:          0 LATE PREFETCHES: 0 DROPPED PREFETCHES: 0
PSCL4 PREFETCHES SAME FILL-ORIGIN LEVEL: 0 DIFFERENT FILL-ORIGIN LEVEL: 0

PSCL3 TOTAL     ACCESS:     662503  HIT:     660036  MISS:       2467  HIT %:    99.6276  MISS %:   0.372376   MPKI: 0.012335
PSCL3 LOAD TRANSLATION ACCESS:     309853  HIT:     307386  MISS:       2467  HIT %:    99.2038  MISS %:   0.796184   MPKI: 0.012335
PSCL3 TRANSLATION FROM L1D PREFETCHER ACCESS:     352650  HIT:     352650  MISS:          0  HIT %:        100  MISS %:          0   MPKI: 0
PSCL3 PREFETCH  REQUESTED:          0  ISSUED:          0  USEFUL:          0  USELESS:          0
PSCL3 USEFUL LOAD PREFETCHES:          0 PREFETCH ISSUED TO LOWER LEVEL:          0  ACCURACY: -nan
PSCL3 TIMELY PREFETCHES:          0 LATE PREFETCHES: 0 DROPPED PREFETCHES: 0
PSCL3 PREFETCHES SAME FILL-ORIGIN LEVEL: 0 DIFFERENT FILL-ORIGIN LEVEL: 0

PSCL2 TOTAL     ACCESS:     362780  HIT:     279731  MISS:      83049  HIT %:    77.1076  MISS %:    22.8924   MPKI: 0.415245
PSCL2 LOAD TRANSLATION ACCESS:     315536  HIT:     232487  MISS:      83049  HIT %:      73.68  MISS %:      26.32   MPKI: 0.415245
PSCL2 TRANSLATION FROM L1D PREFETCHER ACCESS:      47244  HIT:      47244  MISS:          0  HIT %:        100  MISS %:          0   MPKI: 0
PSCL2 PREFETCH  REQUESTED:          0  ISSUED:          0  USEFUL:          0  USELESS:          0
PSCL2 USEFUL LOAD PREFETCHES:          0 PREFETCH ISSUED TO LOWER LEVEL:          0  ACCURACY: -nan
PSCL2 TIMELY PREFETCHES:          0 LATE PREFETCHES: 0 DROPPED PREFETCHES: 0
PSCL2 PREFETCHES SAME FILL-ORIGIN LEVEL: 0 DIFFERENT FILL-ORIGIN LEVEL: 0

LLC TOTAL     ACCESS:    3035681  HIT:    2831343  MISS:     204338  HIT %:    93.2688  MISS %:    6.73121   MPKI: 1.02169
LLC LOAD      ACCESS:    2337072  HIT:    2181351  MISS:     155721  HIT %:    93.3369  MISS %:    6.66308   MPKI: 0.778605
LLC RFO       ACCESS:     124448  HIT:      92320  MISS:      32128  HIT %:    74.1836  MISS %:    25.8164   MPKI: 0.16064
LLC PREFETCH  ACCESS:      62149  HIT:      53310  MISS:       8839  HIT %:    85.7777  MISS %:    14.2223   MPKI: 0.044195
AGUS PREFETCH L1 MISS: 0
LLC WRITEBACK ACCESS:     338059  HIT:     335874  MISS:       2185  HIT %:    99.3537  MISS %:   0.646337   MPKI: 0.010925
LLC LOAD TRANSLATION ACCESS:     146271  HIT:     142887  MISS:       3384  HIT %:    97.6865  MISS %:    2.31351   MPKI: 0.01692
LLC TRANSLATION FROM L1D PREFETCHER ACCESS:      27682  HIT:      25601  MISS:       2081  HIT %:    92.4825  MISS %:    7.51752   MPKI: 0.010405
LLC PREFETCH  REQUESTED:          0  ISSUED:          0  USEFUL:       1561  USELESS:       9192
LLC USEFUL LOAD PREFETCHES:       1561 PREFETCH ISSUED TO LOWER LEVEL:       8839  ACCURACY: 17.6604
LLC TIMELY PREFETCHES:       1561 LATE PREFETCHES: 0 DROPPED PREFETCHES: 0
LLC PREFETCHES SAME FILL-ORIGIN LEVEL: 0 DIFFERENT FILL-ORIGIN LEVEL: 0
LLC AVERAGE MISS LATENCY: 163.911 cycles
LLC RQ	ACCESS:    2635475	FORWARD:          0	MERGED:          0	TO_CACHE:    2635473
LLC WQ	ACCESS:     338059	FORWARD:          2	MERGED:          0	TO_CACHE:     338059
LLC PQ	ACCESS:      62149	FORWARD:          0	MERGED:          0	TO_CACHE:      62149

LLC Dense regions hint to LLC: 0

RAW hits: 2258865
Loads Generated: 56292807
Loads sent to L1D: 54033942
Stores Generated: 18064421
Stores sent to L1D: 18064452
Major fault: 0 Minor fault: 4241
Allocated PAGES: 4241
Completed 

DRAM Statistics
 CHANNEL 0
 RQ ROW_BUFFER_HIT:      44182  ROW_BUFFER_MISS:     157970
 DBUS_CONGESTED:        108
 WQ ROW_BUFFER_HIT:      18080  ROW_BUFFER_MISS:     118377  FULL:          0

 AVG_CONGESTED_CYCLE: 4
 All warmup complete: 2
Channel 0 Bank busy for read cycles: 0
Channel 0 Bank busy for write cycles: 0
Channel 0
Rank 0
0banks busy for read cycles: 520270265
0banks busy for write cycles: 78276
1banks busy for read cycles: 17655240
1banks busy for write cycles: 11062687
2banks busy for read cycles: 2216855
2banks busy for write cycles: 2207199
3banks busy for read cycles: 332926
3banks busy for write cycles: 635512
4banks busy for read cycles: 169334
4banks busy for write cycles: 310577
5banks busy for read cycles: 68847
5banks busy for write cycles: 183730
6banks busy for read cycles: 56244
6banks busy for write cycles: 137284
7banks busy for read cycles: 56610
7banks busy for write cycles: 136126
8banks busy for read cycles: 141365
8banks busy for write cycles: 345862

CPU 0 Branch Prediction Accuracy: 99.8224% MPKI: 0.38789 Average ROB Occupancy at Mispredict: 29.3477
Branch types
NOT_BRANCH: 156307724 78.1539%
BRANCH_DIRECT_JUMP: 1685269 0.842634%
BRANCH_INDIRECT: 19828015 9.91401%
BRANCH_CONDITIONAL: 14737476 7.36874%
BRANCH_DIRECT_CALL: 2993939 1.49697%
BRANCH_INDIRECT_CALL: 724221 0.36211%
BRANCH_RETURN: 3723029 1.86151%
BRANCH_OTHER: 0 0%

DRAM PAGES: 1048576
Allocated PAGES: 4241
