
*** ChampSim Multicore Out-of-Order Simulator ***

Warmup Instructions: 50000000
Simulation Instructions: 200000000
Number of CPUs: 1
LLC sets: 2048
LLC ways: 16
Off-chip DRAM Size: 4096 MB Channels: 1 Width: 64-bit Data Rate: 6400 MT/s
CPU 0 runs traces/spec2k17/srv_19.champsimtrace.xz
.xz
BTB has LRU replacement policy
ITLB has LRU replacement policy
DTLB has LRU replacement policy
STLB has LRU replacement policy
L1I has LRU replacement policy
L1D has LRU replacement policy
Initialize SRRIP state for L2C
Initialize DRRIP state for LLC
Heartbeat CPU 0 instructions: 10000001 cycles: 2838963 heartbeat IPC: 3.52241 cumulative IPC: 3.52241 (Simulation time: 0 hr 0 min 23 sec) 
Heartbeat CPU 0 instructions: 20000000 cycles: 5672683 heartbeat IPC: 3.52893 cumulative IPC: 3.52567 (Simulation time: 0 hr 0 min 45 sec) 
Heartbeat CPU 0 instructions: 30000001 cycles: 8508670 heartbeat IPC: 3.52611 cumulative IPC: 3.52582 (Simulation time: 0 hr 1 min 8 sec) 
*** Reached end of trace for Core: 0 Repeating trace: traces/spec2k17/srv_19.champsimtrace.xz
Heartbeat CPU 0 instructions: 40000002 cycles: 11351923 heartbeat IPC: 3.5171 cumulative IPC: 3.52363 (Simulation time: 0 hr 1 min 30 sec) 
Heartbeat CPU 0 instructions: 50000000 cycles: 14199786 heartbeat IPC: 3.5114 cumulative IPC: 3.52118 (Simulation time: 0 hr 1 min 53 sec) 

Warmup complete CPU 0 instructions: 50000004 cycles: 14199787 (Simulation time: 0 hr 1 min 53 sec) 

Heartbeat CPU 0 instructions: 60000001 cycles: 46758745 heartbeat IPC: 0.307135 cumulative IPC: 0.307135 (Simulation time: 0 hr 2 min 32 sec) 
*** Reached end of trace for Core: 0 Repeating trace: traces/spec2k17/srv_19.champsimtrace.xz
Heartbeat CPU 0 instructions: 70000003 cycles: 79349836 heartbeat IPC: 0.306832 cumulative IPC: 0.306984 (Simulation time: 0 hr 3 min 11 sec) 
Heartbeat CPU 0 instructions: 80000000 cycles: 111589307 heartbeat IPC: 0.310179 cumulative IPC: 0.308041 (Simulation time: 0 hr 3 min 51 sec) 
Heartbeat CPU 0 instructions: 90000001 cycles: 143724262 heartbeat IPC: 0.311188 cumulative IPC: 0.308822 (Simulation time: 0 hr 4 min 30 sec) 
*** Reached end of trace for Core: 0 Repeating trace: traces/spec2k17/srv_19.champsimtrace.xz
Heartbeat CPU 0 instructions: 100000000 cycles: 175864038 heartbeat IPC: 0.311141 cumulative IPC: 0.309283 (Simulation time: 0 hr 5 min 10 sec) 
Heartbeat CPU 0 instructions: 110000000 cycles: 207922366 heartbeat IPC: 0.311931 cumulative IPC: 0.309721 (Simulation time: 0 hr 5 min 49 sec) 
Heartbeat CPU 0 instructions: 120000000 cycles: 240048794 heartbeat IPC: 0.31127 cumulative IPC: 0.309942 (Simulation time: 0 hr 6 min 29 sec) 
*** Reached end of trace for Core: 0 Repeating trace: traces/spec2k17/srv_19.champsimtrace.xz
Heartbeat CPU 0 instructions: 130000001 cycles: 272109638 heartbeat IPC: 0.311907 cumulative IPC: 0.310186 (Simulation time: 0 hr 7 min 9 sec) 
Heartbeat CPU 0 instructions: 140000000 cycles: 304066259 heartbeat IPC: 0.312924 cumulative IPC: 0.310488 (Simulation time: 0 hr 7 min 48 sec) 
Heartbeat CPU 0 instructions: 150000000 cycles: 336148717 heartbeat IPC: 0.311697 cumulative IPC: 0.310608 (Simulation time: 0 hr 8 min 27 sec) 
*** Reached end of trace for Core: 0 Repeating trace: traces/spec2k17/srv_19.champsimtrace.xz
Heartbeat CPU 0 instructions: 160000001 cycles: 368214641 heartbeat IPC: 0.311858 cumulative IPC: 0.310721 (Simulation time: 0 hr 9 min 7 sec) 
Heartbeat CPU 0 instructions: 170000000 cycles: 400248065 heartbeat IPC: 0.312174 cumulative IPC: 0.310842 (Simulation time: 0 hr 9 min 46 sec) 
Heartbeat CPU 0 instructions: 180000003 cycles: 432301740 heartbeat IPC: 0.311977 cumulative IPC: 0.310929 (Simulation time: 0 hr 10 min 25 sec) 
*** Reached end of trace for Core: 0 Repeating trace: traces/spec2k17/srv_19.champsimtrace.xz
Heartbeat CPU 0 instructions: 190000001 cycles: 464231896 heartbeat IPC: 0.313183 cumulative IPC: 0.311089 (Simulation time: 0 hr 11 min 5 sec) 
Heartbeat CPU 0 instructions: 200000000 cycles: 496337934 heartbeat IPC: 0.311468 cumulative IPC: 0.311114 (Simulation time: 0 hr 11 min 45 sec) 
Heartbeat CPU 0 instructions: 210000000 cycles: 528430357 heartbeat IPC: 0.3116 cumulative IPC: 0.311144 (Simulation time: 0 hr 12 min 25 sec) 
*** Reached end of trace for Core: 0 Repeating trace: traces/spec2k17/srv_19.champsimtrace.xz
Heartbeat CPU 0 instructions: 220000000 cycles: 560322778 heartbeat IPC: 0.313554 cumulative IPC: 0.311285 (Simulation time: 0 hr 13 min 4 sec) 
Heartbeat CPU 0 instructions: 230000001 cycles: 592377854 heartbeat IPC: 0.311963 cumulative IPC: 0.311323 (Simulation time: 0 hr 13 min 44 sec) 
Heartbeat CPU 0 instructions: 240000000 cycles: 624372650 heartbeat IPC: 0.312551 cumulative IPC: 0.311387 (Simulation time: 0 hr 14 min 24 sec) 
Heartbeat CPU 0 instructions: 250000001 cycles: 656324268 heartbeat IPC: 0.312973 cumulative IPC: 0.311466 (Simulation time: 0 hr 15 min 3 sec) 
Finished CPU 0 instructions: 200000000 cycles: 642124515 cumulative IPC: 0.311466 (Simulation time: 0 hr 15 min 3 sec) 

ChampSim completed all CPUs

Region of Interest Statistics

CPU 0 cumulative IPC: 0.311466 instructions: 200000000 cycles: 642124515
ITLB TOTAL     ACCESS:   35333732  HIT:   33098004  MISS:    2235728  HIT %:    93.6725  MISS %:    6.32746   MPKI: 11.1786
ITLB LOAD TRANSLATION ACCESS:   35333732  HIT:   33098004  MISS:    2235728  HIT %:    93.6725  MISS %:    6.32746   MPKI: 11.1786
ITLB PREFETCH  REQUESTED:          0  ISSUED:          0  USEFUL:          0  USELESS:          0
ITLB USEFUL LOAD PREFETCHES:          0 PREFETCH ISSUED TO LOWER LEVEL:          0  ACCURACY: -nan
ITLB TIMELY PREFETCHES:          0 LATE PREFETCHES: 0 DROPPED PREFETCHES: 0
ITLB PREFETCHES SAME FILL-ORIGIN LEVEL: 0 DIFFERENT FILL-ORIGIN LEVEL: 0
ITLB AVERAGE MISS LATENCY: 9.24335 cycles
ITLB RQ	ACCESS:   41649155	FORWARD:          0	MERGED:    5783756	TO_CACHE:   35865399

DTLB TOTAL     ACCESS:   45812692  HIT:   43700401  MISS:    2112291  HIT %:    95.3893  MISS %:    4.61071   MPKI: 10.5615
DTLB LOAD TRANSLATION ACCESS:   45812692  HIT:   43700401  MISS:    2112291  HIT %:    95.3893  MISS %:    4.61071   MPKI: 10.5615
DTLB PREFETCH  REQUESTED:          0  ISSUED:          0  USEFUL:          0  USELESS:          0
DTLB USEFUL LOAD PREFETCHES:          0 PREFETCH ISSUED TO LOWER LEVEL:          0  ACCURACY: -nan
DTLB TIMELY PREFETCHES:          0 LATE PREFETCHES: 0 DROPPED PREFETCHES: 0
DTLB PREFETCHES SAME FILL-ORIGIN LEVEL: 0 DIFFERENT FILL-ORIGIN LEVEL: 0
DTLB AVERAGE MISS LATENCY: 9.3775 cycles
DTLB RQ	ACCESS:   60528530	FORWARD:          0	MERGED:   14660934	TO_CACHE:   45867596

STLB TOTAL     ACCESS:   23684575  HIT:   23616885  MISS:      67690  HIT %:    99.7142  MISS %:   0.285798   MPKI: 0.33845
STLB LOAD TRANSLATION ACCESS:    4348019  HIT:    4282689  MISS:      65330  HIT %:    98.4975  MISS %:    1.50252   MPKI: 0.32665
STLB TRANSLATION FROM L1D PREFETCHER ACCESS:   19336556  HIT:   19334196  MISS:       2360  HIT %:    99.9878  MISS %:  0.0122049   MPKI: 0.0118
STLB PREFETCH  REQUESTED:          0  ISSUED:          0  USEFUL:       2233  USELESS:        126
STLB USEFUL LOAD PREFETCHES:       2233 PREFETCH ISSUED TO LOWER LEVEL:          0  ACCURACY: inf
STLB TIMELY PREFETCHES:       2233 LATE PREFETCHES: 1018 DROPPED PREFETCHES: 268977
STLB PREFETCHES SAME FILL-ORIGIN LEVEL: 0 DIFFERENT FILL-ORIGIN LEVEL: 0
STLB AVERAGE MISS LATENCY: 48.78 cycles
STLB RQ	ACCESS:   27791495	FORWARD:          0	MERGED:    3834995	TO_CACHE:   23956500

STLB Hit, L1D data hit: 0
STLB Hit, L2C data hit: 0
STLB Hit, LLC data hit: 0
STLB Hit, LLC data miss: 0
STLB STLB hints to L2: 0
L1D TOTAL     ACCESS:   80540358  HIT:   75143988  MISS:    5396370  HIT %:    93.2998  MISS %:    6.70021   MPKI: 26.9819
L1D LOAD      ACCESS:   33780403  HIT:   31059493  MISS:    2720910  HIT %:    91.9453  MISS %:     8.0547   MPKI: 13.6045
L1D RFO       ACCESS:   25061425  HIT:   23971473  MISS:    1089952  HIT %:    95.6509  MISS %:    4.34912   MPKI: 5.44976
L1D PREFETCH  ACCESS:   21698530  HIT:   20113022  MISS:    1585508  HIT %:     92.693  MISS %:    7.30698   MPKI: 7.92754
AGUS PREFETCH L1 MISS: 0
L1D PREFETCH  REQUESTED:   49248105  ISSUED:   49248065  USEFUL:    1188484  USELESS:     396987
L1D USEFUL LOAD PREFETCHES:    1188484 PREFETCH ISSUED TO LOWER LEVEL:    2316724  ACCURACY: 51.3002
L1D TIMELY PREFETCHES:    1188484 LATE PREFETCHES: 723297 DROPPED PREFETCHES: 298625
L1D PREFETCHES SAME FILL-ORIGIN LEVEL: 2316724 DIFFERENT FILL-ORIGIN LEVEL: 0
L1D AVERAGE MISS LATENCY: 4.93006e+07 cycles
L1D RQ	ACCESS:   46444164	FORWARD:          0	MERGED:   12248260	TO_CACHE:   33879256
L1D WQ	ACCESS:   26793542	FORWARD:     353238	MERGED:     144268	TO_CACHE:   26649274
L1D PQ	ACCESS:   25804588	FORWARD:          0	MERGED:    2324521	TO_CACHE:   23443477

L1D UNIQUE REGIONS ACCESSED: 0
L1D REGIONS CONFLICTS: 0
L1D Cross Page Prefetch Requests: 17343692
L1D Same Page Prefetch Requests: 10061070
L1D ROI Sum of L1D PQ occupancy: 326371058
L1D PREFETCHES PUSHED FROM L2C: 0
L1I TOTAL     ACCESS:   39960437  HIT:   28615584  MISS:   11344853  HIT %:    71.6098  MISS %:    28.3902   MPKI: 56.7243
L1I LOAD      ACCESS:   39960437  HIT:   28615584  MISS:   11344853  HIT %:    71.6098  MISS %:    28.3902   MPKI: 56.7243
L1I PREFETCH  REQUESTED:          0  ISSUED:          0  USEFUL:          0  USELESS:          0
L1I USEFUL LOAD PREFETCHES:          0 PREFETCH ISSUED TO LOWER LEVEL:          0  ACCURACY: -nan
L1I TIMELY PREFETCHES:          0 LATE PREFETCHES: 0 DROPPED PREFETCHES: 0
L1I PREFETCHES SAME FILL-ORIGIN LEVEL: 0 DIFFERENT FILL-ORIGIN LEVEL: 0
L1I AVERAGE MISS LATENCY: 15.8084 cycles
L1I RQ	ACCESS:   58674436	FORWARD:          0	MERGED:   17025281	TO_CACHE:   41649155

BTB TOTAL     ACCESS:   30556675  HIT:   18035302  MISS:   12521373  HIT %:    59.0225  MISS %:    40.9775   MPKI: 62.6069
BTB BRANCH_DIRECT_JUMP	ACCESS:    2074383  HIT:    1262779  MISS:     811604
BTB BRANCH_INDIRECT	ACCESS:   12202008  HIT:    7365935  MISS:    4836073
BTB BRANCH_CONDITIONAL	ACCESS:    7050334  HIT:    5793232  MISS:    1257102
BTB BRANCH_DIRECT_CALL	ACCESS:    3880637  HIT:    1846862  MISS:    2033775
BTB BRANCH_INDIRECT_CALL	ACCESS:     734371  HIT:     365103  MISS:     369268
BTB BRANCH_RETURN	ACCESS:    4614942  HIT:    1401391  MISS:    3213551
BTB BRANCH_OTHER ACCESS:          0  HIT:          0  MISS:          0

L2C TOTAL     ACCESS:   19483800  HIT:   18267537  MISS:    1216263  HIT %:    93.7576  MISS %:    6.24243   MPKI: 6.08132
L2C LOAD      ACCESS:   13342424  HIT:   12415039  MISS:     927385  HIT %:    93.0494  MISS %:    6.95065   MPKI: 4.63692
L2C DATA LOAD MPKI: 1.40054
L2C INSTRUCTION LOAD MPKI: 3.23638
L2C RFO       ACCESS:    1081963  HIT:    1014792  MISS:      67171  HIT %:    93.7917  MISS %:    6.20825   MPKI: 0.335855
L2C PREFETCH  ACCESS:    2316718  HIT:    2182859  MISS:     133859  HIT %:     94.222  MISS %:    5.77796   MPKI: 0.669295
AGUS PREFETCH L1 MISS: 0
L2C DATA PREFETCH MPKI: 0.669295
L2C INSTRUCTION PREFETCH MPKI: 0
L2C WRITEBACK ACCESS:    2241456  HIT:    2215789  MISS:      25667  HIT %:    98.8549  MISS %:     1.1451   MPKI: 0.128335
L2C LOAD TRANSLATION ACCESS:      97117  HIT:      56757  MISS:      40360  HIT %:    58.4419  MISS %:    41.5581   MPKI: 0.2018
L2C TRANSLATION FROM L1D PREFETCHER ACCESS:     404122  HIT:     382301  MISS:      21821  HIT %:    94.6004  MISS %:    5.39961   MPKI: 0.109105
L2C PREFETCH  REQUESTED:          0  ISSUED:          0  USEFUL:      18171  USELESS:     137500
L2C USEFUL LOAD PREFETCHES:      18171 PREFETCH ISSUED TO LOWER LEVEL:     133859  ACCURACY: 13.5747
L2C TIMELY PREFETCHES:      18171 LATE PREFETCHES: 0 DROPPED PREFETCHES: 0
L2C PREFETCHES SAME FILL-ORIGIN LEVEL: 0 DIFFERENT FILL-ORIGIN LEVEL: 0
L2C AVERAGE MISS LATENCY: 35.8454 cycles
L2C RQ	ACCESS:   14925739	FORWARD:          0	MERGED:          0	TO_CACHE:   14925627
L2C WQ	ACCESS:    2241456	FORWARD:        118	MERGED:          0	TO_CACHE:    2241456
L2C PQ	ACCESS:    2316724	FORWARD:          0	MERGED:          0	TO_CACHE:    2316718

L2C Instructions Evicting Data 208894
L2C Translations Evicting Data 37955
L2C Data Evicting Data 252482
L2C Instructions Evicting Instructions 419624
L2C Translations Evicting Instructions 18612
L2C Data Evicting Instructions 191578
L2C Instructions Evicting Translations 18759
L2C Translations Evicting Translations 5614
L2C Data Evicting Translations 37078
L2C Dense regions hint from L2: 0
PSCL5 TOTAL     ACCESS:     335006  HIT:     335006  MISS:          0  HIT %:        100  MISS %:          0   MPKI: 0
PSCL5 LOAD TRANSLATION ACCESS:      64312  HIT:      64312  MISS:          0  HIT %:        100  MISS %:          0   MPKI: 0
PSCL5 TRANSLATION FROM L1D PREFETCHER ACCESS:     270694  HIT:     270694  MISS:          0  HIT %:        100  MISS %:          0   MPKI: 0
PSCL5 PREFETCH  REQUESTED:          0  ISSUED:          0  USEFUL:          0  USELESS:          0
PSCL5 USEFUL LOAD PREFETCHES:          0 PREFETCH ISSUED TO LOWER LEVEL:          0  ACCURACY: -nan
PSCL5 TIMELY PREFETCHES:          0 LATE PREFETCHES: 0 DROPPED PREFETCHES: 0
PSCL5 PREFETCHES SAME FILL-ORIGIN LEVEL: 0 DIFFERENT FILL-ORIGIN LEVEL: 0

PSCL4 TOTAL     ACCESS:     242176  HIT:     241495  MISS:        681  HIT %:    99.7188  MISS %:     0.2812   MPKI: 0.003405
PSCL4 LOAD TRANSLATION ACCESS:      62795  HIT:      62114  MISS:        681  HIT %:    98.9155  MISS %:    1.08448   MPKI: 0.003405
PSCL4 TRANSLATION FROM L1D PREFETCHER ACCESS:     179381  HIT:     179381  MISS:          0  HIT %:        100  MISS %:          0   MPKI: 0
PSCL4 PREFETCH  REQUESTED:          0  ISSUED:          0  USEFUL:          0  USELESS:          0
PSCL4 USEFUL LOAD PREFETCHES:          0 PREFETCH ISSUED TO LOWER LEVEL:          0  ACCURACY: -nan
PSCL4 TIMELY PREFETCHES:          0 LATE PREFETCHES: 0 DROPPED PREFETCHES: 0
PSCL4 PREFETCHES SAME FILL-ORIGIN LEVEL: 0 DIFFERENT FILL-ORIGIN LEVEL: 0

PSCL3 TOTAL     ACCESS:     271636  HIT:     270955  MISS:        681  HIT %:    99.7493  MISS %:   0.250703   MPKI: 0.003405
PSCL3 LOAD TRANSLATION ACCESS:      64367  HIT:      63686  MISS:        681  HIT %:     98.942  MISS %:      1.058   MPKI: 0.003405
PSCL3 TRANSLATION FROM L1D PREFETCHER ACCESS:     207269  HIT:     207269  MISS:          0  HIT %:        100  MISS %:          0   MPKI: 0
PSCL3 PREFETCH  REQUESTED:          0  ISSUED:          0  USEFUL:          0  USELESS:          0
PSCL3 USEFUL LOAD PREFETCHES:          0 PREFETCH ISSUED TO LOWER LEVEL:          0  ACCURACY: -nan
PSCL3 TIMELY PREFETCHES:          0 LATE PREFETCHES: 0 DROPPED PREFETCHES: 0
PSCL3 PREFETCHES SAME FILL-ORIGIN LEVEL: 0 DIFFERENT FILL-ORIGIN LEVEL: 0

PSCL2 TOTAL     ACCESS:      97637  HIT:      63826  MISS:      33811  HIT %:    65.3707  MISS %:    34.6293   MPKI: 0.169055
PSCL2 LOAD TRANSLATION ACCESS:      66432  HIT:      32621  MISS:      33811  HIT %:    49.1043  MISS %:    50.8957   MPKI: 0.169055
PSCL2 TRANSLATION FROM L1D PREFETCHER ACCESS:      31205  HIT:      31205  MISS:          0  HIT %:        100  MISS %:          0   MPKI: 0
PSCL2 PREFETCH  REQUESTED:          0  ISSUED:          0  USEFUL:          0  USELESS:          0
PSCL2 USEFUL LOAD PREFETCHES:          0 PREFETCH ISSUED TO LOWER LEVEL:          0  ACCURACY: -nan
PSCL2 TIMELY PREFETCHES:          0 LATE PREFETCHES: 0 DROPPED PREFETCHES: 0
PSCL2 PREFETCHES SAME FILL-ORIGIN LEVEL: 0 DIFFERENT FILL-ORIGIN LEVEL: 0

LLC TOTAL     ACCESS:    1289075  HIT:    1232560  MISS:      56515  HIT %:    95.6158  MISS %:    4.38415   MPKI: 0.282575
LLC LOAD      ACCESS:     927385  HIT:     883293  MISS:      44092  HIT %:    95.2456  MISS %:    4.75444   MPKI: 0.22046
LLC RFO       ACCESS:      67170  HIT:      62473  MISS:       4697  HIT %:    93.0073  MISS %:    6.99271   MPKI: 0.023485
LLC PREFETCH  ACCESS:     133859  HIT:     128981  MISS:       4878  HIT %:    96.3559  MISS %:    3.64413   MPKI: 0.02439
AGUS PREFETCH L1 MISS: 0
LLC WRITEBACK ACCESS:      98480  HIT:      98247  MISS:        233  HIT %:    99.7634  MISS %:   0.236596   MPKI: 0.001165
LLC LOAD TRANSLATION ACCESS:      40360  HIT:      38328  MISS:       2032  HIT %:    94.9653  MISS %:    5.03469   MPKI: 0.01016
LLC TRANSLATION FROM L1D PREFETCHER ACCESS:      21821  HIT:      21238  MISS:        583  HIT %:    97.3283  MISS %:    2.67174   MPKI: 0.002915
LLC PREFETCH  REQUESTED:          0  ISSUED:          0  USEFUL:       1034  USELESS:       4724
LLC USEFUL LOAD PREFETCHES:       1034 PREFETCH ISSUED TO LOWER LEVEL:       4878  ACCURACY: 21.1972
LLC TIMELY PREFETCHES:       1034 LATE PREFETCHES: 0 DROPPED PREFETCHES: 0
LLC PREFETCHES SAME FILL-ORIGIN LEVEL: 0 DIFFERENT FILL-ORIGIN LEVEL: 0
LLC AVERAGE MISS LATENCY: 139.417 cycles
LLC RQ	ACCESS:    1056737	FORWARD:          0	MERGED:          0	TO_CACHE:    1056736
LLC WQ	ACCESS:      98480	FORWARD:          1	MERGED:          0	TO_CACHE:      98480
LLC PQ	ACCESS:     133859	FORWARD:          0	MERGED:          0	TO_CACHE:     133859

LLC Dense regions hint to LLC: 0

RAW hits: 1433865
Loads Generated: 47878029
Loads sent to L1D: 46444164
Stores Generated: 26793541
Stores sent to L1D: 26793542
Major fault: 0 Minor fault: 4418
Allocated PAGES: 4418
Completed 

DRAM Statistics
 CHANNEL 0
 RQ ROW_BUFFER_HIT:      18442  ROW_BUFFER_MISS:      37840
 DBUS_CONGESTED:         40
 WQ ROW_BUFFER_HIT:        546  ROW_BUFFER_MISS:       5068  FULL:          0

 AVG_CONGESTED_CYCLE: 4
 All warmup complete: 2
Channel 0 Bank busy for read cycles: 0
Channel 0 Bank busy for write cycles: 0
Channel 0
Rank 0
0banks busy for read cycles: 636654674
0banks busy for write cycles: 4015
1banks busy for read cycles: 3808766
1banks busy for write cycles: 596089
2banks busy for read cycles: 515705
2banks busy for write cycles: 81641
3banks busy for read cycles: 166458
3banks busy for write cycles: 27692
4banks busy for read cycles: 97574
4banks busy for write cycles: 15538
5banks busy for read cycles: 58934
5banks busy for write cycles: 5645
6banks busy for read cycles: 41492
6banks busy for write cycles: 2907
7banks busy for read cycles: 25937
7banks busy for write cycles: 2291
8banks busy for read cycles: 17935
8banks busy for write cycles: 1223

CPU 0 Branch Prediction Accuracy: 99.8157% MPKI: 0.33106 Average ROB Occupancy at Mispredict: 49.2316
Branch types
NOT_BRANCH: 164072294 82.0361%
BRANCH_DIRECT_JUMP: 2074383 1.03719%
BRANCH_INDIRECT: 12202008 6.101%
BRANCH_CONDITIONAL: 12421346 6.21067%
BRANCH_DIRECT_CALL: 3880637 1.94032%
BRANCH_INDIRECT_CALL: 734371 0.367185%
BRANCH_RETURN: 4614942 2.30747%
BRANCH_OTHER: 0 0%

DRAM PAGES: 1048576
Allocated PAGES: 4418
