
*** ChampSim Multicore Out-of-Order Simulator ***

Warmup Instructions: 50000000
Simulation Instructions: 200000000
Number of CPUs: 1
LLC sets: 2048
LLC ways: 16
Off-chip DRAM Size: 4096 MB Channels: 1 Width: 64-bit Data Rate: 6400 MT/s
CPU 0 runs traces/spec2k17/srv_46.champsimtrace.xz
.xz
BTB has LRU replacement policy
ITLB has LRU replacement policy
DTLB has LRU replacement policy
STLB has LRU replacement policy
L1I has LRU replacement policy
L1D has LRU replacement policy
Initialize SRRIP state for L2C
Initialize DRRIP state for LLC
Heartbeat CPU 0 instructions: 10000003 cycles: 2962944 heartbeat IPC: 3.37502 cumulative IPC: 3.37502 (Simulation time: 0 hr 0 min 27 sec) 
Heartbeat CPU 0 instructions: 20000002 cycles: 5931487 heartbeat IPC: 3.36866 cumulative IPC: 3.37184 (Simulation time: 0 hr 0 min 54 sec) 
Heartbeat CPU 0 instructions: 30000003 cycles: 8875399 heartbeat IPC: 3.39684 cumulative IPC: 3.38013 (Simulation time: 0 hr 1 min 21 sec) 
*** Reached end of trace for Core: 0 Repeating trace: traces/spec2k17/srv_46.champsimtrace.xz
Heartbeat CPU 0 instructions: 40000000 cycles: 11840467 heartbeat IPC: 3.3726 cumulative IPC: 3.37825 (Simulation time: 0 hr 1 min 47 sec) 
Heartbeat CPU 0 instructions: 50000000 cycles: 14797668 heartbeat IPC: 3.38158 cumulative IPC: 3.37891 (Simulation time: 0 hr 2 min 14 sec) 

Warmup complete CPU 0 instructions: 50000004 cycles: 14797669 (Simulation time: 0 hr 2 min 14 sec) 

Heartbeat CPU 0 instructions: 60000001 cycles: 39125591 heartbeat IPC: 0.41105 cumulative IPC: 0.41105 (Simulation time: 0 hr 2 min 51 sec) 
*** Reached end of trace for Core: 0 Repeating trace: traces/spec2k17/srv_46.champsimtrace.xz
Heartbeat CPU 0 instructions: 70000002 cycles: 62789464 heartbeat IPC: 0.422585 cumulative IPC: 0.416738 (Simulation time: 0 hr 3 min 31 sec) 
Heartbeat CPU 0 instructions: 80000000 cycles: 85033965 heartbeat IPC: 0.449549 cumulative IPC: 0.42713 (Simulation time: 0 hr 4 min 9 sec) 
Heartbeat CPU 0 instructions: 90000003 cycles: 108871848 heartbeat IPC: 0.4195 cumulative IPC: 0.425196 (Simulation time: 0 hr 4 min 48 sec) 
*** Reached end of trace for Core: 0 Repeating trace: traces/spec2k17/srv_46.champsimtrace.xz
Heartbeat CPU 0 instructions: 100000000 cycles: 132104273 heartbeat IPC: 0.430433 cumulative IPC: 0.426233 (Simulation time: 0 hr 5 min 26 sec) 
Heartbeat CPU 0 instructions: 110000000 cycles: 155367886 heartbeat IPC: 0.429856 cumulative IPC: 0.426833 (Simulation time: 0 hr 6 min 4 sec) 
Heartbeat CPU 0 instructions: 120000000 cycles: 177756443 heartbeat IPC: 0.446657 cumulative IPC: 0.429556 (Simulation time: 0 hr 6 min 42 sec) 
*** Reached end of trace for Core: 0 Repeating trace: traces/spec2k17/srv_46.champsimtrace.xz
Heartbeat CPU 0 instructions: 130000001 cycles: 201152157 heartbeat IPC: 0.427429 cumulative IPC: 0.429289 (Simulation time: 0 hr 7 min 20 sec) 
Heartbeat CPU 0 instructions: 140000002 cycles: 225137258 heartbeat IPC: 0.416926 cumulative IPC: 0.42788 (Simulation time: 0 hr 7 min 59 sec) 
Heartbeat CPU 0 instructions: 150000002 cycles: 247770162 heartbeat IPC: 0.441835 cumulative IPC: 0.429235 (Simulation time: 0 hr 8 min 37 sec) 
*** Reached end of trace for Core: 0 Repeating trace: traces/spec2k17/srv_46.champsimtrace.xz
Heartbeat CPU 0 instructions: 160000002 cycles: 270115680 heartbeat IPC: 0.447517 cumulative IPC: 0.430835 (Simulation time: 0 hr 9 min 15 sec) 
Heartbeat CPU 0 instructions: 170000003 cycles: 294715730 heartbeat IPC: 0.406503 cumulative IPC: 0.428697 (Simulation time: 0 hr 9 min 54 sec) 
Heartbeat CPU 0 instructions: 180000000 cycles: 317678778 heartbeat IPC: 0.435482 cumulative IPC: 0.429211 (Simulation time: 0 hr 10 min 33 sec) 
*** Reached end of trace for Core: 0 Repeating trace: traces/spec2k17/srv_46.champsimtrace.xz
Heartbeat CPU 0 instructions: 190000000 cycles: 340018897 heartbeat IPC: 0.447625 cumulative IPC: 0.430476 (Simulation time: 0 hr 11 min 11 sec) 
Heartbeat CPU 0 instructions: 200000003 cycles: 363643403 heartbeat IPC: 0.423289 cumulative IPC: 0.429989 (Simulation time: 0 hr 11 min 50 sec) 
Heartbeat CPU 0 instructions: 210000002 cycles: 387417713 heartbeat IPC: 0.420622 cumulative IPC: 0.429392 (Simulation time: 0 hr 12 min 29 sec) 
*** Reached end of trace for Core: 0 Repeating trace: traces/spec2k17/srv_46.champsimtrace.xz
Heartbeat CPU 0 instructions: 220000000 cycles: 410037299 heartbeat IPC: 0.442095 cumulative IPC: 0.430119 (Simulation time: 0 hr 13 min 9 sec) 
Heartbeat CPU 0 instructions: 230000002 cycles: 431996008 heartbeat IPC: 0.4554 cumulative IPC: 0.431449 (Simulation time: 0 hr 13 min 46 sec) 
Heartbeat CPU 0 instructions: 240000000 cycles: 456241627 heartbeat IPC: 0.412446 cumulative IPC: 0.430406 (Simulation time: 0 hr 14 min 26 sec) 
*** Reached end of trace for Core: 0 Repeating trace: traces/spec2k17/srv_46.champsimtrace.xz
Heartbeat CPU 0 instructions: 250000003 cycles: 479766627 heartbeat IPC: 0.42508 cumulative IPC: 0.430136 (Simulation time: 0 hr 15 min 5 sec) 
Finished CPU 0 instructions: 200000003 cycles: 464968959 cumulative IPC: 0.430136 (Simulation time: 0 hr 15 min 5 sec) 

ChampSim completed all CPUs

Region of Interest Statistics

CPU 0 cumulative IPC: 0.430136 instructions: 200000003 cycles: 464968959
ITLB TOTAL     ACCESS:   34876279  HIT:   33559446  MISS:    1316833  HIT %:    96.2243  MISS %:    3.77573   MPKI: 6.58416
ITLB LOAD TRANSLATION ACCESS:   34876279  HIT:   33559446  MISS:    1316833  HIT %:    96.2243  MISS %:    3.77573   MPKI: 6.58416
ITLB PREFETCH  REQUESTED:          0  ISSUED:          0  USEFUL:          0  USELESS:          0
ITLB USEFUL LOAD PREFETCHES:          0 PREFETCH ISSUED TO LOWER LEVEL:          0  ACCURACY: -nan
ITLB TIMELY PREFETCHES:          0 LATE PREFETCHES: 0 DROPPED PREFETCHES: 0
ITLB PREFETCHES SAME FILL-ORIGIN LEVEL: 0 DIFFERENT FILL-ORIGIN LEVEL: 0
ITLB AVERAGE MISS LATENCY: 9.53663 cycles
ITLB RQ	ACCESS:   40097646	FORWARD:          0	MERGED:    4842596	TO_CACHE:   35255050

DTLB TOTAL     ACCESS:   45178545  HIT:   43940837  MISS:    1237708  HIT %:    97.2604  MISS %:    2.73959   MPKI: 6.18854
DTLB LOAD TRANSLATION ACCESS:   45178545  HIT:   43940837  MISS:    1237708  HIT %:    97.2604  MISS %:    2.73959   MPKI: 6.18854
DTLB PREFETCH  REQUESTED:          0  ISSUED:          0  USEFUL:          0  USELESS:          0
DTLB USEFUL LOAD PREFETCHES:          0 PREFETCH ISSUED TO LOWER LEVEL:          0  ACCURACY: -nan
DTLB TIMELY PREFETCHES:          0 LATE PREFETCHES: 0 DROPPED PREFETCHES: 0
DTLB PREFETCHES SAME FILL-ORIGIN LEVEL: 0 DIFFERENT FILL-ORIGIN LEVEL: 0
DTLB AVERAGE MISS LATENCY: 11.7727 cycles
DTLB RQ	ACCESS:   61859494	FORWARD:          0	MERGED:   16593656	TO_CACHE:   45265838

STLB TOTAL     ACCESS:   12300517  HIT:   12242196  MISS:      58321  HIT %:    99.5259  MISS %:   0.474135   MPKI: 0.291605
STLB LOAD TRANSLATION ACCESS:    2554541  HIT:    2500793  MISS:      53748  HIT %:     97.896  MISS %:    2.10402   MPKI: 0.26874
STLB TRANSLATION FROM L1D PREFETCHER ACCESS:    9745976  HIT:    9741403  MISS:       4573  HIT %:    99.9531  MISS %:  0.0469219   MPKI: 0.022865
STLB PREFETCH  REQUESTED:          0  ISSUED:          0  USEFUL:       3659  USELESS:        903
STLB USEFUL LOAD PREFETCHES:       3659 PREFETCH ISSUED TO LOWER LEVEL:          0  ACCURACY: inf
STLB TIMELY PREFETCHES:       3659 LATE PREFETCHES: 255 DROPPED PREFETCHES: 377602
STLB PREFETCHES SAME FILL-ORIGIN LEVEL: 0 DIFFERENT FILL-ORIGIN LEVEL: 0
STLB AVERAGE MISS LATENCY: 81.2912 cycles
STLB RQ	ACCESS:   14977843	FORWARD:          0	MERGED:    2297403	TO_CACHE:   12680440

STLB Hit, L1D data hit: 0
STLB Hit, L2C data hit: 0
STLB Hit, LLC data hit: 0
STLB Hit, LLC data miss: 0
STLB STLB hints to L2: 0
L1D TOTAL     ACCESS:   71412924  HIT:   68621859  MISS:    2791065  HIT %:    96.0917  MISS %:    3.90835   MPKI: 13.9553
L1D LOAD      ACCESS:   37545704  HIT:   35947911  MISS:    1597793  HIT %:    95.7444  MISS %:    4.25559   MPKI: 7.98896
L1D RFO       ACCESS:   22083934  HIT:   21228145  MISS:     855789  HIT %:    96.1248  MISS %:    3.87517   MPKI: 4.27894
L1D PREFETCH  ACCESS:   11783286  HIT:   11445803  MISS:     337483  HIT %:    97.1359  MISS %:    2.86408   MPKI: 1.68741
AGUS PREFETCH L1 MISS: 0
L1D PREFETCH  REQUESTED:   26158376  ISSUED:   26138670  USEFUL:     184156  USELESS:     153232
L1D USEFUL LOAD PREFETCHES:     184156 PREFETCH ISSUED TO LOWER LEVEL:     423134  ACCURACY: 43.5219
L1D TIMELY PREFETCHES:     184156 LATE PREFETCHES: 84894 DROPPED PREFETCHES: 419201
L1D PREFETCHES SAME FILL-ORIGIN LEVEL: 423134 DIFFERENT FILL-ORIGIN LEVEL: 0
L1D AVERAGE MISS LATENCY: 9.73042e+06 cycles
L1D RQ	ACCESS:   54609243	FORWARD:          0	MERGED:   16802066	TO_CACHE:   37665137
L1D WQ	ACCESS:   24630455	FORWARD:     153439	MERGED:     436098	TO_CACHE:   24194357
L1D PQ	ACCESS:   13715368	FORWARD:          0	MERGED:    1280667	TO_CACHE:   12423302

L1D UNIQUE REGIONS ACCESSED: 0
L1D REGIONS CONFLICTS: 0
L1D Cross Page Prefetch Requests: 8778069
L1D Same Page Prefetch Requests: 6194377
L1D ROI Sum of L1D PQ occupancy: 192846833
L1D PREFETCHES PUSHED FROM L2C: 0
L1I TOTAL     ACCESS:   39408588  HIT:   34418208  MISS:    4990380  HIT %:    87.3368  MISS %:    12.6632   MPKI: 24.9519
L1I LOAD      ACCESS:   39408588  HIT:   34418208  MISS:    4990380  HIT %:    87.3368  MISS %:    12.6632   MPKI: 24.9519
L1I PREFETCH  REQUESTED:          0  ISSUED:          0  USEFUL:          0  USELESS:          0
L1I USEFUL LOAD PREFETCHES:          0 PREFETCH ISSUED TO LOWER LEVEL:          0  ACCURACY: -nan
L1I TIMELY PREFETCHES:          0 LATE PREFETCHES: 0 DROPPED PREFETCHES: 0
L1I PREFETCHES SAME FILL-ORIGIN LEVEL: 0 DIFFERENT FILL-ORIGIN LEVEL: 0
L1I AVERAGE MISS LATENCY: 19.9999 cycles
L1I RQ	ACCESS:   60426103	FORWARD:          0	MERGED:   20328457	TO_CACHE:   40097646

BTB TOTAL     ACCESS:   31255803  HIT:   24838532  MISS:    6417271  HIT %:    79.4685  MISS %:    20.5315   MPKI: 32.0864
BTB BRANCH_DIRECT_JUMP	ACCESS:    2533222  HIT:    2107885  MISS:     425337
BTB BRANCH_INDIRECT	ACCESS:   13038563  HIT:   10544316  MISS:    2494247
BTB BRANCH_CONDITIONAL	ACCESS:    7059562  HIT:    6546706  MISS:     512856
BTB BRANCH_DIRECT_CALL	ACCESS:    3018472  HIT:    2245364  MISS:     773108
BTB BRANCH_INDIRECT_CALL	ACCESS:    1293792  HIT:     937788  MISS:     356004
BTB BRANCH_RETURN	ACCESS:    4312192  HIT:    2456473  MISS:    1855719
BTB BRANCH_OTHER ACCESS:          0  HIT:          0  MISS:          0

L2C TOTAL     ACCESS:    9653072  HIT:    7428034  MISS:    2225038  HIT %:    76.9499  MISS %:    23.0501   MPKI: 11.1252
L2C LOAD      ACCESS:    6503242  HIT:    5033252  MISS:    1469990  HIT %:     77.396  MISS %:     22.604   MPKI: 7.34995
L2C DATA LOAD MPKI: 2.59922
L2C INSTRUCTION LOAD MPKI: 4.75073
L2C RFO       ACCESS:     855026  HIT:     392555  MISS:     462471  HIT %:    45.9115  MISS %:    54.0885   MPKI: 2.31235
L2C PREFETCH  ACCESS:     423120  HIT:     281995  MISS:     141125  HIT %:    66.6466  MISS %:    33.3534   MPKI: 0.705625
AGUS PREFETCH L1 MISS: 0
L2C DATA PREFETCH MPKI: 0.705625
L2C INSTRUCTION PREFETCH MPKI: 0
L2C WRITEBACK ACCESS:    1280288  HIT:    1206483  MISS:      73805  HIT %:    94.2353  MISS %:    5.76472   MPKI: 0.369025
L2C LOAD TRANSLATION ACCESS:      82532  HIT:      36961  MISS:      45571  HIT %:    44.7838  MISS %:    55.2162   MPKI: 0.227855
L2C TRANSLATION FROM L1D PREFETCHER ACCESS:     508864  HIT:     476788  MISS:      32076  HIT %:    93.6965  MISS %:    6.30345   MPKI: 0.16038
L2C PREFETCH  REQUESTED:          0  ISSUED:          0  USEFUL:      30122  USELESS:     142796
L2C USEFUL LOAD PREFETCHES:      30122 PREFETCH ISSUED TO LOWER LEVEL:     141125  ACCURACY: 21.3442
L2C TIMELY PREFETCHES:      30122 LATE PREFETCHES: 0 DROPPED PREFETCHES: 0
L2C PREFETCHES SAME FILL-ORIGIN LEVEL: 0 DIFFERENT FILL-ORIGIN LEVEL: 0
L2C AVERAGE MISS LATENCY: 63.7566 cycles
L2C RQ	ACCESS:    7949706	FORWARD:          0	MERGED:          0	TO_CACHE:    7949664
L2C WQ	ACCESS:    1280288	FORWARD:         56	MERGED:          0	TO_CACHE:    1280288
L2C PQ	ACCESS:     423134	FORWARD:          0	MERGED:          0	TO_CACHE:     423120

L2C Instructions Evicting Data 471169
L2C Translations Evicting Data 46812
L2C Data Evicting Data 640431
L2C Instructions Evicting Instructions 451215
L2C Translations Evicting Instructions 27732
L2C Data Evicting Instructions 438448
L2C Instructions Evicting Translations 27762
L2C Translations Evicting Translations 3103
L2C Data Evicting Translations 44561
L2C Dense regions hint from L2: 0
PSCL5 TOTAL     ACCESS:     400751  HIT:     400751  MISS:          0  HIT %:        100  MISS %:          0   MPKI: 0
PSCL5 LOAD TRANSLATION ACCESS:      53493  HIT:      53493  MISS:          0  HIT %:        100  MISS %:          0   MPKI: 0
PSCL5 TRANSLATION FROM L1D PREFETCHER ACCESS:     347258  HIT:     347258  MISS:          0  HIT %:        100  MISS %:          0   MPKI: 0
PSCL5 PREFETCH  REQUESTED:          0  ISSUED:          0  USEFUL:          0  USELESS:          0
PSCL5 USEFUL LOAD PREFETCHES:          0 PREFETCH ISSUED TO LOWER LEVEL:          0  ACCURACY: -nan
PSCL5 TIMELY PREFETCHES:          0 LATE PREFETCHES: 0 DROPPED PREFETCHES: 0
PSCL5 PREFETCHES SAME FILL-ORIGIN LEVEL: 0 DIFFERENT FILL-ORIGIN LEVEL: 0

PSCL4 TOTAL     ACCESS:     359057  HIT:     358547  MISS:        510  HIT %:     99.858  MISS %:   0.142039   MPKI: 0.00255
PSCL4 LOAD TRANSLATION ACCESS:      52237  HIT:      51727  MISS:        510  HIT %:    99.0237  MISS %:   0.976319   MPKI: 0.00255
PSCL4 TRANSLATION FROM L1D PREFETCHER ACCESS:     306820  HIT:     306820  MISS:          0  HIT %:        100  MISS %:          0   MPKI: 0
PSCL4 PREFETCH  REQUESTED:          0  ISSUED:          0  USEFUL:          0  USELESS:          0
PSCL4 USEFUL LOAD PREFETCHES:          0 PREFETCH ISSUED TO LOWER LEVEL:          0  ACCURACY: -nan
PSCL4 TIMELY PREFETCHES:          0 LATE PREFETCHES: 0 DROPPED PREFETCHES: 0
PSCL4 PREFETCHES SAME FILL-ORIGIN LEVEL: 0 DIFFERENT FILL-ORIGIN LEVEL: 0

PSCL3 TOTAL     ACCESS:     255253  HIT:     247267  MISS:       7986  HIT %:    96.8713  MISS %:    3.12866   MPKI: 0.03993
PSCL3 LOAD TRANSLATION ACCESS:      50332  HIT:      42346  MISS:       7986  HIT %:    84.1334  MISS %:    15.8666   MPKI: 0.03993
PSCL3 TRANSLATION FROM L1D PREFETCHER ACCESS:     204921  HIT:     204921  MISS:          0  HIT %:        100  MISS %:          0   MPKI: 0
PSCL3 PREFETCH  REQUESTED:          0  ISSUED:          0  USEFUL:          0  USELESS:          0
PSCL3 USEFUL LOAD PREFETCHES:          0 PREFETCH ISSUED TO LOWER LEVEL:          0  ACCURACY: -nan
PSCL3 TIMELY PREFETCHES:          0 LATE PREFETCHES: 0 DROPPED PREFETCHES: 0
PSCL3 PREFETCHES SAME FILL-ORIGIN LEVEL: 0 DIFFERENT FILL-ORIGIN LEVEL: 0

PSCL2 TOTAL     ACCESS:     121096  HIT:      98780  MISS:      22316  HIT %:    81.5716  MISS %:    18.4284   MPKI: 0.11158
PSCL2 LOAD TRANSLATION ACCESS:      54813  HIT:      32497  MISS:      22316  HIT %:     59.287  MISS %:     40.713   MPKI: 0.11158
PSCL2 TRANSLATION FROM L1D PREFETCHER ACCESS:      66283  HIT:      66283  MISS:          0  HIT %:        100  MISS %:          0   MPKI: 0
PSCL2 PREFETCH  REQUESTED:          0  ISSUED:          0  USEFUL:          0  USELESS:          0
PSCL2 USEFUL LOAD PREFETCHES:          0 PREFETCH ISSUED TO LOWER LEVEL:          0  ACCURACY: -nan
PSCL2 TIMELY PREFETCHES:          0 LATE PREFETCHES: 0 DROPPED PREFETCHES: 0
PSCL2 PREFETCHES SAME FILL-ORIGIN LEVEL: 0 DIFFERENT FILL-ORIGIN LEVEL: 0

LLC TOTAL     ACCESS:    2738769  HIT:    2279620  MISS:     459149  HIT %:    83.2352  MISS %:    16.7648   MPKI: 2.29574
LLC LOAD      ACCESS:    1469989  HIT:    1271666  MISS:     198323  HIT %:    86.5085  MISS %:    13.4915   MPKI: 0.991615
LLC RFO       ACCESS:     462471  HIT:     287233  MISS:     175238  HIT %:    62.1083  MISS %:    37.8917   MPKI: 0.87619
LLC PREFETCH  ACCESS:     141112  HIT:      95486  MISS:      45626  HIT %:    67.6668  MISS %:    32.3332   MPKI: 0.22813
AGUS PREFETCH L1 MISS: 0
LLC WRITEBACK ACCESS:     587550  HIT:     560808  MISS:      26742  HIT %:    95.4486  MISS %:    4.55144   MPKI: 0.13371
LLC LOAD TRANSLATION ACCESS:      45571  HIT:      36140  MISS:       9431  HIT %:    79.3048  MISS %:    20.6952   MPKI: 0.047155
LLC TRANSLATION FROM L1D PREFETCHER ACCESS:      32076  HIT:      28287  MISS:       3789  HIT %:    88.1874  MISS %:    11.8126   MPKI: 0.018945
LLC PREFETCH  REQUESTED:          0  ISSUED:          0  USEFUL:       2845  USELESS:      47791
LLC USEFUL LOAD PREFETCHES:       2845 PREFETCH ISSUED TO LOWER LEVEL:      45626  ACCURACY: 6.23548
LLC TIMELY PREFETCHES:       2845 LATE PREFETCHES: 0 DROPPED PREFETCHES: 0
LLC PREFETCHES SAME FILL-ORIGIN LEVEL: 0 DIFFERENT FILL-ORIGIN LEVEL: 0
LLC AVERAGE MISS LATENCY: 168.406 cycles
LLC RQ	ACCESS:    2010108	FORWARD:          0	MERGED:          0	TO_CACHE:    2010107
LLC WQ	ACCESS:     587550	FORWARD:         14	MERGED:          0	TO_CACHE:     587550
LLC PQ	ACCESS:     141125	FORWARD:          0	MERGED:          0	TO_CACHE:     141112

LLC Dense regions hint to LLC: 0

RAW hits: 2706222
Loads Generated: 57315463
Loads sent to L1D: 54609243
Stores Generated: 24630459
Stores sent to L1D: 24630455
Major fault: 0 Minor fault: 4769
Allocated PAGES: 4769
Completed 

DRAM Statistics
 CHANNEL 0
 RQ ROW_BUFFER_HIT:     148003  ROW_BUFFER_MISS:     284404
 DBUS_CONGESTED:        243
 WQ ROW_BUFFER_HIT:      34580  ROW_BUFFER_MISS:     179890  FULL:          0

 AVG_CONGESTED_CYCLE: 5
 All warmup complete: 2
Channel 0 Bank busy for read cycles: 0
Channel 0 Bank busy for write cycles: 0
Channel 0
Rank 0
0banks busy for read cycles: 414634370
0banks busy for write cycles: 90835
1banks busy for read cycles: 22413851
1banks busy for write cycles: 12876083
2banks busy for read cycles: 5205147
2banks busy for write cycles: 3231339
3banks busy for read cycles: 1078205
3banks busy for write cycles: 974875
4banks busy for read cycles: 359104
4banks busy for write cycles: 421801
5banks busy for read cycles: 211730
5banks busy for write cycles: 213738
6banks busy for read cycles: 188634
6banks busy for write cycles: 139919
7banks busy for read cycles: 259778
7banks busy for write cycles: 179081
8banks busy for read cycles: 1097194
8banks busy for write cycles: 1393276

CPU 0 Branch Prediction Accuracy: 99.7584% MPKI: 0.42388 Average ROB Occupancy at Mispredict: 26.4966
Branch types
NOT_BRANCH: 164908869 82.4544%
BRANCH_DIRECT_JUMP: 2533222 1.26661%
BRANCH_INDIRECT: 13038563 6.51928%
BRANCH_CONDITIONAL: 10894809 5.4474%
BRANCH_DIRECT_CALL: 3018472 1.50924%
BRANCH_INDIRECT_CALL: 1293792 0.646896%
BRANCH_RETURN: 4312192 2.1561%
BRANCH_OTHER: 0 0%

DRAM PAGES: 1048576
Allocated PAGES: 4769
