
*** ChampSim Multicore Out-of-Order Simulator ***

Warmup Instructions: 50000000
Simulation Instructions: 200000000
Number of CPUs: 1
LLC sets: 2048
LLC ways: 16
Off-chip DRAM Size: 4096 MB Channels: 1 Width: 64-bit Data Rate: 6400 MT/s
CPU 0 runs traces/spec2k17/srv_34.champsimtrace.xz
.xz
BTB has LRU replacement policy
ITLB has LRU replacement policy
DTLB has LRU replacement policy
STLB has LRU replacement policy
L1I has LRU replacement policy
L1D has LRU replacement policy
Initialize SRRIP state for L2C
Initialize DRRIP state for LLC
Heartbeat CPU 0 instructions: 10000001 cycles: 2937982 heartbeat IPC: 3.4037 cumulative IPC: 3.4037 (Simulation time: 0 hr 0 min 28 sec) 
Heartbeat CPU 0 instructions: 20000002 cycles: 5883614 heartbeat IPC: 3.39486 cumulative IPC: 3.39927 (Simulation time: 0 hr 0 min 55 sec) 
Heartbeat CPU 0 instructions: 30000001 cycles: 8821423 heartbeat IPC: 3.4039 cumulative IPC: 3.40081 (Simulation time: 0 hr 1 min 22 sec) 
*** Reached end of trace for Core: 0 Repeating trace: traces/spec2k17/srv_34.champsimtrace.xz
Heartbeat CPU 0 instructions: 40000001 cycles: 11763509 heartbeat IPC: 3.39895 cumulative IPC: 3.40035 (Simulation time: 0 hr 1 min 49 sec) 
Heartbeat CPU 0 instructions: 50000003 cycles: 14709012 heartbeat IPC: 3.39501 cumulative IPC: 3.39928 (Simulation time: 0 hr 2 min 16 sec) 

Warmup complete CPU 0 instructions: 50000003 cycles: 14709012 (Simulation time: 0 hr 2 min 16 sec) 

Heartbeat CPU 0 instructions: 60000001 cycles: 34232546 heartbeat IPC: 0.512202 cumulative IPC: 0.512202 (Simulation time: 0 hr 3 min 1 sec) 
*** Reached end of trace for Core: 0 Repeating trace: traces/spec2k17/srv_34.champsimtrace.xz
Heartbeat CPU 0 instructions: 70000001 cycles: 53622137 heartbeat IPC: 0.515741 cumulative IPC: 0.513965 (Simulation time: 0 hr 3 min 47 sec) 
Heartbeat CPU 0 instructions: 80000003 cycles: 73104292 heartbeat IPC: 0.51329 cumulative IPC: 0.51374 (Simulation time: 0 hr 4 min 32 sec) 
Heartbeat CPU 0 instructions: 90000001 cycles: 92498225 heartbeat IPC: 0.515625 cumulative IPC: 0.51421 (Simulation time: 0 hr 5 min 18 sec) 
*** Reached end of trace for Core: 0 Repeating trace: traces/spec2k17/srv_34.champsimtrace.xz
Heartbeat CPU 0 instructions: 100000000 cycles: 111771193 heartbeat IPC: 0.518861 cumulative IPC: 0.515134 (Simulation time: 0 hr 6 min 3 sec) 
Heartbeat CPU 0 instructions: 110000000 cycles: 131200558 heartbeat IPC: 0.514685 cumulative IPC: 0.515059 (Simulation time: 0 hr 6 min 49 sec) 
Heartbeat CPU 0 instructions: 120000000 cycles: 150544872 heartbeat IPC: 0.516948 cumulative IPC: 0.515328 (Simulation time: 0 hr 7 min 35 sec) 
*** Reached end of trace for Core: 0 Repeating trace: traces/spec2k17/srv_34.champsimtrace.xz
Heartbeat CPU 0 instructions: 130000002 cycles: 169850158 heartbeat IPC: 0.517993 cumulative IPC: 0.515659 (Simulation time: 0 hr 8 min 20 sec) 
Heartbeat CPU 0 instructions: 140000001 cycles: 189189474 heartbeat IPC: 0.517081 cumulative IPC: 0.515817 (Simulation time: 0 hr 9 min 5 sec) 
Heartbeat CPU 0 instructions: 150000001 cycles: 208519382 heartbeat IPC: 0.517333 cumulative IPC: 0.515968 (Simulation time: 0 hr 9 min 50 sec) 
Heartbeat CPU 0 instructions: 160000000 cycles: 227821777 heartbeat IPC: 0.51807 cumulative IPC: 0.516159 (Simulation time: 0 hr 10 min 36 sec) 
*** Reached end of trace for Core: 0 Repeating trace: traces/spec2k17/srv_34.champsimtrace.xz
Heartbeat CPU 0 instructions: 170000000 cycles: 247151172 heartbeat IPC: 0.517347 cumulative IPC: 0.516257 (Simulation time: 0 hr 11 min 21 sec) 
Heartbeat CPU 0 instructions: 180000000 cycles: 266534286 heartbeat IPC: 0.515913 cumulative IPC: 0.516231 (Simulation time: 0 hr 12 min 6 sec) 
Heartbeat CPU 0 instructions: 190000000 cycles: 285810687 heartbeat IPC: 0.518769 cumulative IPC: 0.516411 (Simulation time: 0 hr 12 min 51 sec) 
*** Reached end of trace for Core: 0 Repeating trace: traces/spec2k17/srv_34.champsimtrace.xz
Heartbeat CPU 0 instructions: 200000000 cycles: 305049927 heartbeat IPC: 0.519771 cumulative IPC: 0.516634 (Simulation time: 0 hr 13 min 37 sec) 
Heartbeat CPU 0 instructions: 210000000 cycles: 324429213 heartbeat IPC: 0.516015 cumulative IPC: 0.516595 (Simulation time: 0 hr 14 min 23 sec) 
Heartbeat CPU 0 instructions: 220000000 cycles: 343657846 heartbeat IPC: 0.520058 cumulative IPC: 0.516798 (Simulation time: 0 hr 15 min 8 sec) 
*** Reached end of trace for Core: 0 Repeating trace: traces/spec2k17/srv_34.champsimtrace.xz
Heartbeat CPU 0 instructions: 230000003 cycles: 362902967 heartbeat IPC: 0.519612 cumulative IPC: 0.516953 (Simulation time: 0 hr 15 min 55 sec) 
Heartbeat CPU 0 instructions: 240000000 cycles: 382284051 heartbeat IPC: 0.515967 cumulative IPC: 0.516901 (Simulation time: 0 hr 16 min 40 sec) 
Heartbeat CPU 0 instructions: 250000001 cycles: 401533775 heartbeat IPC: 0.519488 cumulative IPC: 0.51703 (Simulation time: 0 hr 17 min 25 sec) 
Finished CPU 0 instructions: 200000000 cycles: 386824764 cumulative IPC: 0.51703 (Simulation time: 0 hr 17 min 25 sec) 

ChampSim completed all CPUs

Region of Interest Statistics

CPU 0 cumulative IPC: 0.51703 instructions: 200000000 cycles: 386824764
ITLB TOTAL     ACCESS:   33781730  HIT:   32239575  MISS:    1542155  HIT %:    95.4349  MISS %:    4.56506   MPKI: 7.71077
ITLB LOAD TRANSLATION ACCESS:   33781730  HIT:   32239575  MISS:    1542155  HIT %:    95.4349  MISS %:    4.56506   MPKI: 7.71077
ITLB PREFETCH  REQUESTED:          0  ISSUED:          0  USEFUL:          0  USELESS:          0
ITLB USEFUL LOAD PREFETCHES:          0 PREFETCH ISSUED TO LOWER LEVEL:          0  ACCURACY: -nan
ITLB TIMELY PREFETCHES:          0 LATE PREFETCHES: 0 DROPPED PREFETCHES: 0
ITLB PREFETCHES SAME FILL-ORIGIN LEVEL: 0 DIFFERENT FILL-ORIGIN LEVEL: 0
ITLB AVERAGE MISS LATENCY: 9.18863 cycles
ITLB RQ	ACCESS:   40673086	FORWARD:          0	MERGED:    6396481	TO_CACHE:   34276605

DTLB TOTAL     ACCESS:   39997146  HIT:   38487666  MISS:    1509480  HIT %:     96.226  MISS %:    3.77397   MPKI: 7.5474
DTLB LOAD TRANSLATION ACCESS:   39997146  HIT:   38487666  MISS:    1509480  HIT %:     96.226  MISS %:    3.77397   MPKI: 7.5474
DTLB PREFETCH  REQUESTED:          0  ISSUED:          0  USEFUL:          0  USELESS:          0
DTLB USEFUL LOAD PREFETCHES:          0 PREFETCH ISSUED TO LOWER LEVEL:          0  ACCURACY: -nan
DTLB TIMELY PREFETCHES:          0 LATE PREFETCHES: 0 DROPPED PREFETCHES: 0
DTLB PREFETCHES SAME FILL-ORIGIN LEVEL: 0 DIFFERENT FILL-ORIGIN LEVEL: 0
DTLB AVERAGE MISS LATENCY: 14.3231 cycles
DTLB RQ	ACCESS:   61122025	FORWARD:          0	MERGED:   20745790	TO_CACHE:   40376235

STLB TOTAL     ACCESS:    9741583  HIT:    9664279  MISS:      77304  HIT %:    99.2065  MISS %:   0.793547   MPKI: 0.38652
STLB LOAD TRANSLATION ACCESS:    3051635  HIT:    2977117  MISS:      74518  HIT %:    97.5581  MISS %:     2.4419   MPKI: 0.37259
STLB TRANSLATION FROM L1D PREFETCHER ACCESS:    6689948  HIT:    6687162  MISS:       2786  HIT %:    99.9584  MISS %:  0.0416446   MPKI: 0.01393
STLB PREFETCH  REQUESTED:          0  ISSUED:          0  USEFUL:       2536  USELESS:        249
STLB USEFUL LOAD PREFETCHES:       2536 PREFETCH ISSUED TO LOWER LEVEL:          0  ACCURACY: inf
STLB TIMELY PREFETCHES:       2536 LATE PREFETCHES: 925 DROPPED PREFETCHES: 64581
STLB PREFETCHES SAME FILL-ORIGIN LEVEL: 0 DIFFERENT FILL-ORIGIN LEVEL: 0
STLB AVERAGE MISS LATENCY: 145138 cycles
STLB RQ	ACCESS:   12511517	FORWARD:          0	MERGED:    2702958	TO_CACHE:    9808559

STLB Hit, L1D data hit: 0
STLB Hit, L2C data hit: 0
STLB Hit, LLC data hit: 0
STLB Hit, LLC data miss: 0
STLB STLB hints to L2: 0
L1D TOTAL     ACCESS:   57205724  HIT:   50243548  MISS:    6962176  HIT %:    87.8296  MISS %:    12.1704   MPKI: 34.8109
L1D LOAD      ACCESS:   26752406  HIT:   23887888  MISS:    2864518  HIT %:    89.2925  MISS %:    10.7075   MPKI: 14.3226
L1D RFO       ACCESS:   22397922  HIT:   18723760  MISS:    3674162  HIT %:     83.596  MISS %:     16.404   MPKI: 18.3708
L1D PREFETCH  ACCESS:    8055396  HIT:    7631900  MISS:     423496  HIT %:    94.7427  MISS %:     5.2573   MPKI: 2.11748
AGUS PREFETCH L1 MISS: 0
L1D PREFETCH  REQUESTED:   20647392  ISSUED:   20645036  USEFUL:     232408  USELESS:     191089
L1D USEFUL LOAD PREFETCHES:     232408 PREFETCH ISSUED TO LOWER LEVEL:     864361  ACCURACY: 26.8878
L1D TIMELY PREFETCHES:     232408 LATE PREFETCHES: 438429 DROPPED PREFETCHES: 69728
L1D PREFETCHES SAME FILL-ORIGIN LEVEL: 864361 DIFFERENT FILL-ORIGIN LEVEL: 0
L1D AVERAGE MISS LATENCY: 1.37821e+07 cycles
L1D RQ	ACCESS:   45285490	FORWARD:          0	MERGED:   17858402	TO_CACHE:   27148496
L1D WQ	ACCESS:   34174261	FORWARD:     311137	MERGED:     200732	TO_CACHE:   33973529
L1D PQ	ACCESS:   11185154	FORWARD:          0	MERGED:    1692727	TO_CACHE:    9459882

L1D UNIQUE REGIONS ACCESSED: 0
L1D REGIONS CONFLICTS: 0
L1D Cross Page Prefetch Requests: 4566709
L1D Same Page Prefetch Requests: 8347291
L1D ROI Sum of L1D PQ occupancy: 140998478
L1D PREFETCHES PUSHED FROM L2C: 0
L1I TOTAL     ACCESS:   38006639  HIT:   28876948  MISS:    9129691  HIT %:    75.9787  MISS %:    24.0213   MPKI: 45.6485
L1I LOAD      ACCESS:   38006639  HIT:   28876948  MISS:    9129691  HIT %:    75.9787  MISS %:    24.0213   MPKI: 45.6485
L1I PREFETCH  REQUESTED:          0  ISSUED:          0  USEFUL:          0  USELESS:          0
L1I USEFUL LOAD PREFETCHES:          0 PREFETCH ISSUED TO LOWER LEVEL:          0  ACCURACY: -nan
L1I TIMELY PREFETCHES:          0 LATE PREFETCHES: 0 DROPPED PREFETCHES: 0
L1I PREFETCHES SAME FILL-ORIGIN LEVEL: 0 DIFFERENT FILL-ORIGIN LEVEL: 0
L1I AVERAGE MISS LATENCY: 16.4942 cycles
L1I RQ	ACCESS:   58997351	FORWARD:          0	MERGED:   18324265	TO_CACHE:   40673086

BTB TOTAL     ACCESS:   25683983  HIT:   24137267  MISS:    1546716  HIT %:    93.9779  MISS %:     6.0221   MPKI: 7.73358
BTB BRANCH_DIRECT_JUMP	ACCESS:    1661224  HIT:    1651564  MISS:       9660
BTB BRANCH_INDIRECT	ACCESS:    9989440  HIT:    9473851  MISS:     515589
BTB BRANCH_CONDITIONAL	ACCESS:    7185443  HIT:    7172058  MISS:      13385
BTB BRANCH_DIRECT_CALL	ACCESS:    2827619  HIT:    2794301  MISS:      33318
BTB BRANCH_INDIRECT_CALL	ACCESS:     596257  HIT:     484762  MISS:     111495
BTB BRANCH_RETURN	ACCESS:    3424000  HIT:    2560731  MISS:     863269
BTB BRANCH_OTHER ACCESS:          0  HIT:          0  MISS:          0

L2C TOTAL     ACCESS:   20613546  HIT:   13920469  MISS:    6693077  HIT %:    67.5307  MISS %:    32.4693   MPKI: 33.4654
L2C LOAD      ACCESS:   11555712  HIT:    9231255  MISS:    2324457  HIT %:    79.8848  MISS %:    20.1152   MPKI: 11.6223
L2C DATA LOAD MPKI: 8.87085
L2C INSTRUCTION LOAD MPKI: 2.75143
L2C RFO       ACCESS:    3671729  HIT:     166313  MISS:    3505416  HIT %:    4.52956  MISS %:    95.4704   MPKI: 17.5271
L2C PREFETCH  ACCESS:     864345  HIT:     193521  MISS:     670824  HIT %:    22.3893  MISS %:    77.6107   MPKI: 3.35412
AGUS PREFETCH L1 MISS: 0
L2C DATA PREFETCH MPKI: 3.35412
L2C INSTRUCTION PREFETCH MPKI: 0
L2C WRITEBACK ACCESS:    4340038  HIT:    4207731  MISS:     132307  HIT %:    96.9515  MISS %:    3.04852   MPKI: 0.661535
L2C LOAD TRANSLATION ACCESS:      83722  HIT:      44967  MISS:      38755  HIT %:    53.7099  MISS %:    46.2901   MPKI: 0.193775
L2C TRANSLATION FROM L1D PREFETCHER ACCESS:      98000  HIT:      76682  MISS:      21318  HIT %:    78.2469  MISS %:    21.7531   MPKI: 0.10659
L2C PREFETCH  REQUESTED:          0  ISSUED:          0  USEFUL:      30762  USELESS:     661669
L2C USEFUL LOAD PREFETCHES:      30762 PREFETCH ISSUED TO LOWER LEVEL:     670824  ACCURACY: 4.5857
L2C TIMELY PREFETCHES:      30762 LATE PREFETCHES: 0 DROPPED PREFETCHES: 0
L2C PREFETCHES SAME FILL-ORIGIN LEVEL: 0 DIFFERENT FILL-ORIGIN LEVEL: 0
L2C AVERAGE MISS LATENCY: 157.89 cycles
L2C RQ	ACCESS:   15409244	FORWARD:          0	MERGED:          0	TO_CACHE:   15409174
L2C WQ	ACCESS:    4340039	FORWARD:         86	MERGED:          0	TO_CACHE:    4340039
L2C PQ	ACCESS:     864361	FORWARD:          0	MERGED:          0	TO_CACHE:     864345

L2C Instructions Evicting Data 508309
L2C Translations Evicting Data 54832
L2C Data Evicting Data 5400088
L2C Instructions Evicting Instructions 37126
L2C Translations Evicting Instructions 4850
L2C Data Evicting Instructions 496609
L2C Instructions Evicting Translations 4852
L2C Translations Evicting Translations 391
L2C Data Evicting Translations 53713
L2C Dense regions hint from L2: 0
PSCL5 TOTAL     ACCESS:     135452  HIT:     135452  MISS:          0  HIT %:        100  MISS %:          0   MPKI: 0
PSCL5 LOAD TRANSLATION ACCESS:      73593  HIT:      73593  MISS:          0  HIT %:        100  MISS %:          0   MPKI: 0
PSCL5 TRANSLATION FROM L1D PREFETCHER ACCESS:      61859  HIT:      61859  MISS:          0  HIT %:        100  MISS %:          0   MPKI: 0
PSCL5 PREFETCH  REQUESTED:          0  ISSUED:          0  USEFUL:          0  USELESS:          0
PSCL5 USEFUL LOAD PREFETCHES:          0 PREFETCH ISSUED TO LOWER LEVEL:          0  ACCURACY: -nan
PSCL5 TIMELY PREFETCHES:          0 LATE PREFETCHES: 0 DROPPED PREFETCHES: 0
PSCL5 PREFETCHES SAME FILL-ORIGIN LEVEL: 0 DIFFERENT FILL-ORIGIN LEVEL: 0

PSCL4 TOTAL     ACCESS:     112774  HIT:     112667  MISS:        107  HIT %:    99.9051  MISS %:    0.09488   MPKI: 0.000535
PSCL4 LOAD TRANSLATION ACCESS:      63933  HIT:      63826  MISS:        107  HIT %:    99.8326  MISS %:   0.167363   MPKI: 0.000535
PSCL4 TRANSLATION FROM L1D PREFETCHER ACCESS:      48841  HIT:      48841  MISS:          0  HIT %:        100  MISS %:          0   MPKI: 0
PSCL4 PREFETCH  REQUESTED:          0  ISSUED:          0  USEFUL:          0  USELESS:          0
PSCL4 USEFUL LOAD PREFETCHES:          0 PREFETCH ISSUED TO LOWER LEVEL:          0  ACCURACY: -nan
PSCL4 TIMELY PREFETCHES:          0 LATE PREFETCHES: 0 DROPPED PREFETCHES: 0
PSCL4 PREFETCHES SAME FILL-ORIGIN LEVEL: 0 DIFFERENT FILL-ORIGIN LEVEL: 0

PSCL3 TOTAL     ACCESS:     128672  HIT:     128455  MISS:        217  HIT %:    99.8314  MISS %:   0.168646   MPKI: 0.001085
PSCL3 LOAD TRANSLATION ACCESS:      73502  HIT:      73285  MISS:        217  HIT %:    99.7048  MISS %:    0.29523   MPKI: 0.001085
PSCL3 TRANSLATION FROM L1D PREFETCHER ACCESS:      55170  HIT:      55170  MISS:          0  HIT %:        100  MISS %:          0   MPKI: 0
PSCL3 PREFETCH  REQUESTED:          0  ISSUED:          0  USEFUL:          0  USELESS:          0
PSCL3 USEFUL LOAD PREFETCHES:          0 PREFETCH ISSUED TO LOWER LEVEL:          0  ACCURACY: -nan
PSCL3 TIMELY PREFETCHES:          0 LATE PREFETCHES: 0 DROPPED PREFETCHES: 0
PSCL3 PREFETCHES SAME FILL-ORIGIN LEVEL: 0 DIFFERENT FILL-ORIGIN LEVEL: 0

PSCL2 TOTAL     ACCESS:      97277  HIT:      87065  MISS:      10212  HIT %:    89.5021  MISS %:    10.4979   MPKI: 0.05106
PSCL2 LOAD TRANSLATION ACCESS:      73999  HIT:      63787  MISS:      10212  HIT %:    86.1998  MISS %:    13.8002   MPKI: 0.05106
PSCL2 TRANSLATION FROM L1D PREFETCHER ACCESS:      23278  HIT:      23278  MISS:          0  HIT %:        100  MISS %:          0   MPKI: 0
PSCL2 PREFETCH  REQUESTED:          0  ISSUED:          0  USEFUL:          0  USELESS:          0
PSCL2 USEFUL LOAD PREFETCHES:          0 PREFETCH ISSUED TO LOWER LEVEL:          0  ACCURACY: -nan
PSCL2 TIMELY PREFETCHES:          0 LATE PREFETCHES: 0 DROPPED PREFETCHES: 0
PSCL2 PREFETCHES SAME FILL-ORIGIN LEVEL: 0 DIFFERENT FILL-ORIGIN LEVEL: 0

LLC TOTAL     ACCESS:   10575646  HIT:    4220419  MISS:    6355227  HIT %:     39.907  MISS %:     60.093   MPKI: 31.7761
LLC LOAD      ACCESS:    2324456  HIT:    1555648  MISS:     768808  HIT %:    66.9253  MISS %:    33.0747   MPKI: 3.84404
LLC RFO       ACCESS:    3505382  HIT:     963168  MISS:    2542214  HIT %:    27.4768  MISS %:    72.5232   MPKI: 12.7111
LLC PREFETCH  ACCESS:     670824  HIT:     138407  MISS:     532417  HIT %:    20.6324  MISS %:    79.3676   MPKI: 2.66208
AGUS PREFETCH L1 MISS: 0
LLC WRITEBACK ACCESS:    4014911  HIT:    1539324  MISS:    2475587  HIT %:    38.3402  MISS %:    61.6598   MPKI: 12.3779
LLC LOAD TRANSLATION ACCESS:      38755  HIT:      11334  MISS:      27421  HIT %:    29.2453  MISS %:    70.7547   MPKI: 0.137105
LLC TRANSLATION FROM L1D PREFETCHER ACCESS:      21318  HIT:      12538  MISS:       8780  HIT %:    58.8141  MISS %:    41.1859   MPKI: 0.0439
LLC PREFETCH  REQUESTED:          0  ISSUED:          0  USEFUL:       1991  USELESS:     539722
LLC USEFUL LOAD PREFETCHES:       1991 PREFETCH ISSUED TO LOWER LEVEL:     532417  ACCURACY: 0.373955
LLC TIMELY PREFETCHES:       1991 LATE PREFETCHES: 0 DROPPED PREFETCHES: 0
LLC PREFETCHES SAME FILL-ORIGIN LEVEL: 0 DIFFERENT FILL-ORIGIN LEVEL: 0
LLC AVERAGE MISS LATENCY: 135.311 cycles
LLC RQ	ACCESS:    5889956	FORWARD:          0	MERGED:          0	TO_CACHE:    5889919
LLC WQ	ACCESS:    4014912	FORWARD:         37	MERGED:          0	TO_CACHE:    4014912
LLC PQ	ACCESS:     670824	FORWARD:          0	MERGED:          0	TO_CACHE:     670824

LLC Dense regions hint to LLC: 0

RAW hits: 2459551
Loads Generated: 47745046
Loads sent to L1D: 45285490
Stores Generated: 34174248
Stores sent to L1D: 34174261
Major fault: 0 Minor fault: 8817
Allocated PAGES: 8817
Completed 

DRAM Statistics
 CHANNEL 0
 RQ ROW_BUFFER_HIT:    1833935  ROW_BUFFER_MISS:    2045138
 DBUS_CONGESTED:       2393
 WQ ROW_BUFFER_HIT:     519713  ROW_BUFFER_MISS:    2094505  FULL:      61013

 AVG_CONGESTED_CYCLE: 3
 All warmup complete: 2
Channel 0 Bank busy for read cycles: 0
Channel 0 Bank busy for write cycles: 0
Channel 0
Rank 0
0banks busy for read cycles: 169306223
0banks busy for write cycles: 277037
1banks busy for read cycles: 33584039
1banks busy for write cycles: 38747200
2banks busy for read cycles: 13624974
2banks busy for write cycles: 13819407
3banks busy for read cycles: 15524921
3banks busy for write cycles: 6379773
4banks busy for read cycles: 5847353
4banks busy for write cycles: 4111566
5banks busy for read cycles: 4993103
5banks busy for write cycles: 3270275
6banks busy for read cycles: 5888843
6banks busy for write cycles: 3220950
7banks busy for read cycles: 8841126
7banks busy for write cycles: 5713187
8banks busy for read cycles: 19076448
8banks busy for write cycles: 34598340

CPU 0 Branch Prediction Accuracy: 99.9482% MPKI: 0.079205 Average ROB Occupancy at Mispredict: 122.893
Branch types
NOT_BRANCH: 169447800 84.7239%
BRANCH_DIRECT_JUMP: 1661224 0.830612%
BRANCH_INDIRECT: 9989440 4.99472%
BRANCH_CONDITIONAL: 12053307 6.02665%
BRANCH_DIRECT_CALL: 2827619 1.41381%
BRANCH_INDIRECT_CALL: 596257 0.298129%
BRANCH_RETURN: 3424000 1.712%
BRANCH_OTHER: 0 0%

DRAM PAGES: 1048576
Allocated PAGES: 8817
