
*** ChampSim Multicore Out-of-Order Simulator ***

Warmup Instructions: 50000000
Simulation Instructions: 200000000
Number of CPUs: 1
LLC sets: 2048
LLC ways: 16
Off-chip DRAM Size: 4096 MB Channels: 1 Width: 64-bit Data Rate: 6400 MT/s
CPU 0 runs traces/spec2k17/server_028.champsimtrace.xz
.xz
BTB has LRU replacement policy
ITLB has LRU replacement policy
DTLB has LRU replacement policy
STLB has LRU replacement policy
L1I has LRU replacement policy
CPU 0 L2C next line prefetcher
L1D has LRU replacement policy
Initialize SRRIP state for L2C
Initialize DRRIP state for LLC
Heartbeat CPU 0 instructions: 10000001 cycles: 2844460 heartbeat IPC: 3.51561 cumulative IPC: 3.51561 (Simulation time: 0 hr 0 min 34 sec) 
Heartbeat CPU 0 instructions: 20000002 cycles: 5678270 heartbeat IPC: 3.52882 cumulative IPC: 3.5222 (Simulation time: 0 hr 1 min 7 sec) 
Heartbeat CPU 0 instructions: 30000002 cycles: 8512444 heartbeat IPC: 3.52836 cumulative IPC: 3.52425 (Simulation time: 0 hr 1 min 41 sec) 
Heartbeat CPU 0 instructions: 40000001 cycles: 11347563 heartbeat IPC: 3.52719 cumulative IPC: 3.52499 (Simulation time: 0 hr 2 min 14 sec) 
Heartbeat CPU 0 instructions: 50000003 cycles: 14183993 heartbeat IPC: 3.52556 cumulative IPC: 3.5251 (Simulation time: 0 hr 2 min 49 sec) 

Warmup complete CPU 0 instructions: 50000003 cycles: 14183993 (Simulation time: 0 hr 2 min 49 sec) 

Heartbeat CPU 0 instructions: 60000000 cycles: 46489840 heartbeat IPC: 0.309541 cumulative IPC: 0.309541 (Simulation time: 0 hr 3 min 53 sec) 
Heartbeat CPU 0 instructions: 70000000 cycles: 78894605 heartbeat IPC: 0.308597 cumulative IPC: 0.309068 (Simulation time: 0 hr 4 min 56 sec) 
Heartbeat CPU 0 instructions: 80000000 cycles: 111355568 heartbeat IPC: 0.308062 cumulative IPC: 0.308732 (Simulation time: 0 hr 6 min 4 sec) 
*** Reached end of trace for Core: 0 Repeating trace: traces/spec2k17/server_028.champsimtrace.xz
Heartbeat CPU 0 instructions: 90000001 cycles: 143502879 heartbeat IPC: 0.311068 cumulative IPC: 0.309313 (Simulation time: 0 hr 7 min 8 sec) 
Heartbeat CPU 0 instructions: 100000001 cycles: 175550631 heartbeat IPC: 0.312034 cumulative IPC: 0.309853 (Simulation time: 0 hr 8 min 11 sec) 
Heartbeat CPU 0 instructions: 110000000 cycles: 207946713 heartbeat IPC: 0.308679 cumulative IPC: 0.309657 (Simulation time: 0 hr 9 min 16 sec) 
Heartbeat CPU 0 instructions: 120000003 cycles: 240083013 heartbeat IPC: 0.311175 cumulative IPC: 0.309873 (Simulation time: 0 hr 10 min 19 sec) 
Heartbeat CPU 0 instructions: 130000001 cycles: 272448823 heartbeat IPC: 0.308968 cumulative IPC: 0.30976 (Simulation time: 0 hr 11 min 23 sec) 
Heartbeat CPU 0 instructions: 140000001 cycles: 304756912 heartbeat IPC: 0.30952 cumulative IPC: 0.309733 (Simulation time: 0 hr 12 min 29 sec) 
Heartbeat CPU 0 instructions: 150000002 cycles: 336931246 heartbeat IPC: 0.310807 cumulative IPC: 0.30984 (Simulation time: 0 hr 13 min 32 sec) 
Heartbeat CPU 0 instructions: 160000000 cycles: 369237558 heartbeat IPC: 0.309537 cumulative IPC: 0.309812 (Simulation time: 0 hr 14 min 37 sec) 
Heartbeat CPU 0 instructions: 170000001 cycles: 401219723 heartbeat IPC: 0.312674 cumulative IPC: 0.310049 (Simulation time: 0 hr 15 min 42 sec) 
*** Reached end of trace for Core: 0 Repeating trace: traces/spec2k17/server_028.champsimtrace.xz
Heartbeat CPU 0 instructions: 180000002 cycles: 433416279 heartbeat IPC: 0.310592 cumulative IPC: 0.310091 (Simulation time: 0 hr 16 min 47 sec) 
Heartbeat CPU 0 instructions: 190000000 cycles: 465552216 heartbeat IPC: 0.311178 cumulative IPC: 0.310168 (Simulation time: 0 hr 17 min 55 sec) 
Heartbeat CPU 0 instructions: 200000001 cycles: 497712583 heartbeat IPC: 0.310942 cumulative IPC: 0.310219 (Simulation time: 0 hr 19 min 1 sec) 
Heartbeat CPU 0 instructions: 210000002 cycles: 529989024 heartbeat IPC: 0.309824 cumulative IPC: 0.310195 (Simulation time: 0 hr 20 min 4 sec) 
Heartbeat CPU 0 instructions: 220000000 cycles: 562347006 heartbeat IPC: 0.309043 cumulative IPC: 0.310127 (Simulation time: 0 hr 21 min 8 sec) 
Heartbeat CPU 0 instructions: 230000000 cycles: 594454448 heartbeat IPC: 0.311454 cumulative IPC: 0.3102 (Simulation time: 0 hr 22 min 12 sec) 
Heartbeat CPU 0 instructions: 240000000 cycles: 626621967 heartbeat IPC: 0.310873 cumulative IPC: 0.310236 (Simulation time: 0 hr 23 min 16 sec) 
Heartbeat CPU 0 instructions: 250000000 cycles: 658926883 heartbeat IPC: 0.30955 cumulative IPC: 0.310201 (Simulation time: 0 hr 24 min 21 sec) 
Finished CPU 0 instructions: 200000003 cycles: 644742901 cumulative IPC: 0.310201 (Simulation time: 0 hr 24 min 21 sec) 

ChampSim completed all CPUs

Region of Interest Statistics

CPU 0 cumulative IPC: 0.310201 instructions: 200000003 cycles: 644742901
ITLB TOTAL     ACCESS:   35605453  HIT:   33416246  MISS:    2189207  HIT %:    93.8515  MISS %:    6.14852   MPKI: 10.946
ITLB LOAD TRANSLATION ACCESS:   35605453  HIT:   33416246  MISS:    2189207  HIT %:    93.8515  MISS %:    6.14852   MPKI: 10.946
ITLB PREFETCH  REQUESTED:          0  ISSUED:          0  USEFUL:          0  USELESS:          0
ITLB USEFUL LOAD PREFETCHES:          0 PREFETCH ISSUED TO LOWER LEVEL:          0  ACCURACY: -nan
ITLB TIMELY PREFETCHES:          0 LATE PREFETCHES: 0 DROPPED PREFETCHES: 0
ITLB PREFETCHES SAME FILL-ORIGIN LEVEL: 0 DIFFERENT FILL-ORIGIN LEVEL: 0
ITLB AVERAGE MISS LATENCY: 9.25649 cycles
ITLB RQ	ACCESS:   41779555	FORWARD:          0	MERGED:    5649661	TO_CACHE:   36129894

DTLB TOTAL     ACCESS:   45075362  HIT:   42993172  MISS:    2082190  HIT %:    95.3806  MISS %:    4.61935   MPKI: 10.4109
DTLB LOAD TRANSLATION ACCESS:   45075362  HIT:   42993172  MISS:    2082190  HIT %:    95.3806  MISS %:    4.61935   MPKI: 10.4109
DTLB PREFETCH  REQUESTED:          0  ISSUED:          0  USEFUL:          0  USELESS:          0
DTLB USEFUL LOAD PREFETCHES:          0 PREFETCH ISSUED TO LOWER LEVEL:          0  ACCURACY: -nan
DTLB TIMELY PREFETCHES:          0 LATE PREFETCHES: 0 DROPPED PREFETCHES: 0
DTLB PREFETCHES SAME FILL-ORIGIN LEVEL: 0 DIFFERENT FILL-ORIGIN LEVEL: 0
DTLB AVERAGE MISS LATENCY: 10.4721 cycles
DTLB RQ	ACCESS:   59689186	FORWARD:          0	MERGED:   14558222	TO_CACHE:   45130964

STLB TOTAL     ACCESS:    4271397  HIT:    4194981  MISS:      76416  HIT %:     98.211  MISS %:    1.78902   MPKI: 0.38208
STLB LOAD TRANSLATION ACCESS:    4271397  HIT:    4194981  MISS:      76416  HIT %:     98.211  MISS %:    1.78902   MPKI: 0.38208
STLB PREFETCH  REQUESTED:          0  ISSUED:          0  USEFUL:          0  USELESS:          0
STLB USEFUL LOAD PREFETCHES:          0 PREFETCH ISSUED TO LOWER LEVEL:          0  ACCURACY: -nan
STLB TIMELY PREFETCHES:          0 LATE PREFETCHES: 0 DROPPED PREFETCHES: 0
STLB PREFETCHES SAME FILL-ORIGIN LEVEL: 0 DIFFERENT FILL-ORIGIN LEVEL: 0
STLB AVERAGE MISS LATENCY: 47.0852 cycles
STLB RQ	ACCESS:    4271397	FORWARD:          0	MERGED:          0	TO_CACHE:    4271397

STLB Hit, L1D data hit: 0
STLB Hit, L2C data hit: 0
STLB Hit, LLC data hit: 0
STLB Hit, LLC data miss: 0
STLB STLB hints to L2: 0
L1D TOTAL     ACCESS:   57776329  HIT:   52209409  MISS:    5566920  HIT %:    90.3647  MISS %:     9.6353   MPKI: 27.8346
L1D LOAD      ACCESS:   33472547  HIT:   29104823  MISS:    4367724  HIT %:    86.9513  MISS %:    13.0487   MPKI: 21.8386
L1D RFO       ACCESS:   24303782  HIT:   23104586  MISS:    1199196  HIT %:    95.0658  MISS %:     4.9342   MPKI: 5.99598
L1D PREFETCH  REQUESTED:          0  ISSUED:          0  USEFUL:          0  USELESS:          0
L1D USEFUL LOAD PREFETCHES:          0 PREFETCH ISSUED TO LOWER LEVEL:          0  ACCURACY: -nan
L1D TIMELY PREFETCHES:          0 LATE PREFETCHES: 0 DROPPED PREFETCHES: 0
L1D PREFETCHES SAME FILL-ORIGIN LEVEL: 0 DIFFERENT FILL-ORIGIN LEVEL: 0
L1D AVERAGE MISS LATENCY: 19.6881 cycles
L1D RQ	ACCESS:   46056945	FORWARD:          0	MERGED:   12128648	TO_CACHE:   33614535
L1D WQ	ACCESS:   26217180	FORWARD:     313762	MERGED:     142529	TO_CACHE:   26074651

L1D UNIQUE REGIONS ACCESSED: 0
L1D REGIONS CONFLICTS: 0
L1D Cross Page Prefetch Requests: 0
L1D Same Page Prefetch Requests: 0
L1D ROI Sum of L1D PQ occupancy: 0
L1D PREFETCHES PUSHED FROM L2C: 0
L1I TOTAL     ACCESS:   40144176  HIT:   29060476  MISS:   11083700  HIT %:    72.3903  MISS %:    27.6097   MPKI: 55.4185
L1I LOAD      ACCESS:   40144176  HIT:   29060476  MISS:   11083700  HIT %:    72.3903  MISS %:    27.6097   MPKI: 55.4185
L1I PREFETCH  REQUESTED:          0  ISSUED:          0  USEFUL:          0  USELESS:          0
L1I USEFUL LOAD PREFETCHES:          0 PREFETCH ISSUED TO LOWER LEVEL:          0  ACCURACY: -nan
L1I TIMELY PREFETCHES:          0 LATE PREFETCHES: 0 DROPPED PREFETCHES: 0
L1I PREFETCHES SAME FILL-ORIGIN LEVEL: 0 DIFFERENT FILL-ORIGIN LEVEL: 0
L1I AVERAGE MISS LATENCY: 15.4975 cycles
L1I RQ	ACCESS:   58374766	FORWARD:          0	MERGED:   16595211	TO_CACHE:   41779555

BTB TOTAL     ACCESS:   30542458  HIT:   18336623  MISS:   12205835  HIT %:    60.0365  MISS %:    39.9635   MPKI: 61.0292
BTB BRANCH_DIRECT_JUMP	ACCESS:    2010403  HIT:    1225655  MISS:     784748
BTB BRANCH_INDIRECT	ACCESS:   11931802  HIT:    7220486  MISS:    4711316
BTB BRANCH_CONDITIONAL	ACCESS:    7548039  HIT:    6326083  MISS:    1221956
BTB BRANCH_DIRECT_CALL	ACCESS:    3806012  HIT:    1828717  MISS:    1977295
BTB BRANCH_INDIRECT_CALL	ACCESS:     720088  HIT:     358904  MISS:     361184
BTB BRANCH_RETURN	ACCESS:    4526114  HIT:    1376778  MISS:    3149336
BTB BRANCH_OTHER ACCESS:          0  HIT:          0  MISS:          0

L2C TOTAL     ACCESS:   19031842  HIT:   18043101  MISS:     988741  HIT %:    94.8048  MISS %:    5.19519   MPKI: 4.9437
L2C LOAD      ACCESS:   15451422  HIT:   14593672  MISS:     857750  HIT %:    94.4487  MISS %:    5.55127   MPKI: 4.28875
L2C DATA LOAD MPKI: 1.69274
L2C INSTRUCTION LOAD MPKI: 2.59601
L2C RFO       ACCESS:    1199196  HIT:    1130427  MISS:      68769  HIT %:    94.2654  MISS %:    5.73459   MPKI: 0.343845
L2C WRITEBACK ACCESS:    2271101  HIT:    2247803  MISS:      23298  HIT %:    98.9742  MISS %:    1.02585   MPKI: 0.11649
L2C LOAD TRANSLATION ACCESS:     110123  HIT:      71199  MISS:      38924  HIT %:    64.6541  MISS %:    35.3459   MPKI: 0.19462
L2C PREFETCH  REQUESTED:          0  ISSUED:          0  USEFUL:          0  USELESS:          0
L2C USEFUL LOAD PREFETCHES:          0 PREFETCH ISSUED TO LOWER LEVEL:          0  ACCURACY: -nan
L2C TIMELY PREFETCHES:          0 LATE PREFETCHES: 0 DROPPED PREFETCHES: 0
L2C PREFETCHES SAME FILL-ORIGIN LEVEL: 0 DIFFERENT FILL-ORIGIN LEVEL: 0
L2C AVERAGE MISS LATENCY: 43.8185 cycles
L2C RQ	ACCESS:   16760742	FORWARD:          0	MERGED:          0	TO_CACHE:   16760741
L2C WQ	ACCESS:    2271101	FORWARD:          1	MERGED:          0	TO_CACHE:    2271101

L2C Instructions Evicting Data 174566
L2C Translations Evicting Data 25607
L2C Data Evicting Data 222371
L2C Instructions Evicting Instructions 334947
L2C Translations Evicting Instructions 9495
L2C Data Evicting Instructions 159709
L2C Instructions Evicting Translations 9689
L2C Translations Evicting Translations 3822
L2C Data Evicting Translations 25237
L2C Dense regions hint from L2: 0
PSCL5 TOTAL     ACCESS:      76416  HIT:      76416  MISS:          0  HIT %:        100  MISS %:          0   MPKI: 0
PSCL5 LOAD TRANSLATION ACCESS:      76416  HIT:      76416  MISS:          0  HIT %:        100  MISS %:          0   MPKI: 0
PSCL5 PREFETCH  REQUESTED:          0  ISSUED:          0  USEFUL:          0  USELESS:          0
PSCL5 USEFUL LOAD PREFETCHES:          0 PREFETCH ISSUED TO LOWER LEVEL:          0  ACCURACY: -nan
PSCL5 TIMELY PREFETCHES:          0 LATE PREFETCHES: 0 DROPPED PREFETCHES: 0
PSCL5 PREFETCHES SAME FILL-ORIGIN LEVEL: 0 DIFFERENT FILL-ORIGIN LEVEL: 0

PSCL4 TOTAL     ACCESS:      74656  HIT:      73927  MISS:        729  HIT %:    99.0235  MISS %:   0.976479   MPKI: 0.003645
PSCL4 LOAD TRANSLATION ACCESS:      74656  HIT:      73927  MISS:        729  HIT %:    99.0235  MISS %:   0.976479   MPKI: 0.003645
PSCL4 PREFETCH  REQUESTED:          0  ISSUED:          0  USEFUL:          0  USELESS:          0
PSCL4 USEFUL LOAD PREFETCHES:          0 PREFETCH ISSUED TO LOWER LEVEL:          0  ACCURACY: -nan
PSCL4 TIMELY PREFETCHES:          0 LATE PREFETCHES: 0 DROPPED PREFETCHES: 0
PSCL4 PREFETCHES SAME FILL-ORIGIN LEVEL: 0 DIFFERENT FILL-ORIGIN LEVEL: 0

PSCL3 TOTAL     ACCESS:      76141  HIT:      75412  MISS:        729  HIT %:    99.0426  MISS %:   0.957434   MPKI: 0.003645
PSCL3 LOAD TRANSLATION ACCESS:      76141  HIT:      75412  MISS:        729  HIT %:    99.0426  MISS %:   0.957434   MPKI: 0.003645
PSCL3 PREFETCH  REQUESTED:          0  ISSUED:          0  USEFUL:          0  USELESS:          0
PSCL3 USEFUL LOAD PREFETCHES:          0 PREFETCH ISSUED TO LOWER LEVEL:          0  ACCURACY: -nan
PSCL3 TIMELY PREFETCHES:          0 LATE PREFETCHES: 0 DROPPED PREFETCHES: 0
PSCL3 PREFETCHES SAME FILL-ORIGIN LEVEL: 0 DIFFERENT FILL-ORIGIN LEVEL: 0

PSCL2 TOTAL     ACCESS:      76416  HIT:      44167  MISS:      32249  HIT %:    57.7981  MISS %:    42.2019   MPKI: 0.161245
PSCL2 LOAD TRANSLATION ACCESS:      76416  HIT:      44167  MISS:      32249  HIT %:    57.7981  MISS %:    42.2019   MPKI: 0.161245
PSCL2 PREFETCH  REQUESTED:          0  ISSUED:          0  USEFUL:          0  USELESS:          0
PSCL2 USEFUL LOAD PREFETCHES:          0 PREFETCH ISSUED TO LOWER LEVEL:          0  ACCURACY: -nan
PSCL2 TIMELY PREFETCHES:          0 LATE PREFETCHES: 0 DROPPED PREFETCHES: 0
PSCL2 PREFETCHES SAME FILL-ORIGIN LEVEL: 0 DIFFERENT FILL-ORIGIN LEVEL: 0

LLC TOTAL     ACCESS:    1054520  HIT:     947835  MISS:     106685  HIT %:    89.8831  MISS %:    10.1169   MPKI: 0.533425
LLC LOAD      ACCESS:     857750  HIT:     762284  MISS:      95466  HIT %:    88.8702  MISS %:    11.1298   MPKI: 0.47733
LLC RFO       ACCESS:      68767  HIT:      60728  MISS:       8039  HIT %:    88.3098  MISS %:    11.6902   MPKI: 0.040195
LLC WRITEBACK ACCESS:      89079  HIT:      88759  MISS:        320  HIT %:    99.6408  MISS %:   0.359232   MPKI: 0.0016
LLC LOAD TRANSLATION ACCESS:      38924  HIT:      36064  MISS:       2860  HIT %:    92.6523  MISS %:    7.34765   MPKI: 0.0143
LLC PREFETCH  REQUESTED:          0  ISSUED:          0  USEFUL:          0  USELESS:          0
LLC USEFUL LOAD PREFETCHES:          0 PREFETCH ISSUED TO LOWER LEVEL:          0  ACCURACY: -nan
LLC TIMELY PREFETCHES:          0 LATE PREFETCHES: 0 DROPPED PREFETCHES: 0
LLC PREFETCHES SAME FILL-ORIGIN LEVEL: 0 DIFFERENT FILL-ORIGIN LEVEL: 0
LLC AVERAGE MISS LATENCY: 134.572 cycles
LLC RQ	ACCESS:     965443	FORWARD:          0	MERGED:          0	TO_CACHE:     965441
LLC WQ	ACCESS:      89079	FORWARD:          2	MERGED:          0	TO_CACHE:      89079

LLC Dense regions hint to LLC: 0

RAW hits: 1427319
Loads Generated: 47484266
Loads sent to L1D: 46056945
Stores Generated: 26217178
Stores sent to L1D: 26217180
Major fault: 0 Minor fault: 6256
Allocated PAGES: 6256
CPU 0 L1d next line prefetcher final stats

-63,1533
-62,1586
-61,1566
-60,1585
-59,1432
-58,1441
-57,1521
-56,1482
-55,1578
-54,1584
-53,1591
-52,1735
-51,1702
-50,1674
-49,1687
-48,1636
-47,1582
-46,1738
-45,1626
-44,1825
-43,1901
-42,1886
-41,1789
-40,1934
-39,1772
-38,1883
-37,1823
-36,1987
-35,1799
-34,1958
-33,2038
-32,2040
-31,2016
-30,2022
-29,1988
-28,1932
-27,1923
-26,2047
-25,1974
-24,1932
-23,2056
-22,2190
-21,2201
-20,2251
-19,2203
-18,2339
-17,2321
-16,2741
-15,2562
-14,2731
-13,2590
-12,2627
-11,2712
-10,2818
-9,3156
-8,3029
-7,3029
-6,3528
-5,3450
-4,3680
-3,4058
-2,5126
-1,8735
0,4292
1,16324
2,16695
3,14886
4,14435
5,13736
6,13317
7,13188
8,12835
9,12504
10,12225
11,12017
12,11586
13,11328
14,11125
15,10995
16,10806
17,11022
18,10604
19,10453
20,10162
21,10042
22,9892
23,10156
24,10007
25,10039
26,9899
27,9801
28,9611
29,9658
30,9580
31,9674
32,9615
33,9566
34,9483
35,9386
36,9326
37,9443
38,9188
39,9341
40,9336
41,9110
42,9070
43,8998
44,8934
45,8800
46,8746
47,8606
48,8627
49,8636
50,8566
51,8607
52,8596
53,8580
54,8601
55,8422
56,8482
57,8403
58,8312
59,8256
60,8185
61,8201
62,8243
63,8154

DRAM Statistics
 CHANNEL 0
 RQ ROW_BUFFER_HIT:      40578  ROW_BUFFER_MISS:      65787
 DBUS_CONGESTED:         28
 WQ ROW_BUFFER_HIT:       1430  ROW_BUFFER_MISS:       7848  FULL:          0

 AVG_CONGESTED_CYCLE: 4
 All warmup complete: 2
Channel 0 Bank busy for read cycles: 0
Channel 0 Bank busy for write cycles: 0
Channel 0
Rank 0
0banks busy for read cycles: 635377073
0banks busy for write cycles: 6331
1banks busy for read cycles: 6468291
1banks busy for write cycles: 1010456
2banks busy for read cycles: 824917
2banks busy for write cycles: 166569
3banks busy for read cycles: 262961
3banks busy for write cycles: 64946
4banks busy for read cycles: 139717
4banks busy for write cycles: 30559
5banks busy for read cycles: 105233
5banks busy for write cycles: 8925
6banks busy for read cycles: 89893
6banks busy for write cycles: 2314
7banks busy for read cycles: 88434
7banks busy for write cycles: 734
8banks busy for read cycles: 93371
8banks busy for write cycles: 2178

CPU 0 Branch Prediction Accuracy: 99.7758% MPKI: 0.40526 Average ROB Occupancy at Mispredict: 44.2425
Branch types
NOT_BRANCH: 163841120 81.9206%
BRANCH_DIRECT_JUMP: 2010403 1.0052%
BRANCH_INDIRECT: 11931802 5.9659%
BRANCH_CONDITIONAL: 13164452 6.58223%
BRANCH_DIRECT_CALL: 3806012 1.90301%
BRANCH_INDIRECT_CALL: 720088 0.360044%
BRANCH_RETURN: 4526114 2.26306%
BRANCH_OTHER: 0 0%

DRAM PAGES: 1048576
Allocated PAGES: 6256
