
*** ChampSim Multicore Out-of-Order Simulator ***

Warmup Instructions: 50000000
Simulation Instructions: 200000000
Number of CPUs: 1
LLC sets: 2048
LLC ways: 16
Off-chip DRAM Size: 4096 MB Channels: 1 Width: 64-bit Data Rate: 6400 MT/s
CPU 0 runs traces/spec2k17/srv_45.champsimtrace.xz
.xz
BTB has LRU replacement policy
ITLB has LRU replacement policy
DTLB has LRU replacement policy
STLB has LRU replacement policy
L1I has LRU replacement policy
CPU 0 L2C next line prefetcher
L1D has LRU replacement policy
Initialize SRRIP state for L2C
Initialize DRRIP state for LLC
Heartbeat CPU 0 instructions: 10000003 cycles: 2933530 heartbeat IPC: 3.40886 cumulative IPC: 3.40886 (Simulation time: 0 hr 0 min 39 sec) 
Heartbeat CPU 0 instructions: 20000002 cycles: 5867180 heartbeat IPC: 3.40872 cumulative IPC: 3.40879 (Simulation time: 0 hr 1 min 17 sec) 
Heartbeat CPU 0 instructions: 30000000 cycles: 8796327 heartbeat IPC: 3.41396 cumulative IPC: 3.41051 (Simulation time: 0 hr 1 min 56 sec) 
*** Reached end of trace for Core: 0 Repeating trace: traces/spec2k17/srv_45.champsimtrace.xz
Heartbeat CPU 0 instructions: 40000000 cycles: 11722978 heartbeat IPC: 3.41687 cumulative IPC: 3.4121 (Simulation time: 0 hr 2 min 35 sec) 
Heartbeat CPU 0 instructions: 50000001 cycles: 14652536 heartbeat IPC: 3.41348 cumulative IPC: 3.41238 (Simulation time: 0 hr 3 min 12 sec) 

Warmup complete CPU 0 instructions: 50000001 cycles: 14652536 (Simulation time: 0 hr 3 min 12 sec) 

Heartbeat CPU 0 instructions: 60000000 cycles: 54123194 heartbeat IPC: 0.253353 cumulative IPC: 0.253353 (Simulation time: 0 hr 4 min 23 sec) 
*** Reached end of trace for Core: 0 Repeating trace: traces/spec2k17/srv_45.champsimtrace.xz
Heartbeat CPU 0 instructions: 70000000 cycles: 93534629 heartbeat IPC: 0.253733 cumulative IPC: 0.253543 (Simulation time: 0 hr 5 min 35 sec) 
Heartbeat CPU 0 instructions: 80000001 cycles: 133041652 heartbeat IPC: 0.25312 cumulative IPC: 0.253402 (Simulation time: 0 hr 6 min 44 sec) 
Heartbeat CPU 0 instructions: 90000003 cycles: 172381124 heartbeat IPC: 0.254198 cumulative IPC: 0.2536 (Simulation time: 0 hr 7 min 53 sec) 
*** Reached end of trace for Core: 0 Repeating trace: traces/spec2k17/srv_45.champsimtrace.xz
Heartbeat CPU 0 instructions: 100000003 cycles: 211810616 heartbeat IPC: 0.253617 cumulative IPC: 0.253604 (Simulation time: 0 hr 9 min 1 sec) 
Heartbeat CPU 0 instructions: 110000000 cycles: 251422989 heartbeat IPC: 0.252446 cumulative IPC: 0.25341 (Simulation time: 0 hr 10 min 11 sec) 
Heartbeat CPU 0 instructions: 120000000 cycles: 290683748 heartbeat IPC: 0.254707 cumulative IPC: 0.253595 (Simulation time: 0 hr 11 min 22 sec) 
*** Reached end of trace for Core: 0 Repeating trace: traces/spec2k17/srv_45.champsimtrace.xz
Heartbeat CPU 0 instructions: 130000002 cycles: 330024024 heartbeat IPC: 0.254192 cumulative IPC: 0.253669 (Simulation time: 0 hr 12 min 34 sec) 
Heartbeat CPU 0 instructions: 140000003 cycles: 369407809 heartbeat IPC: 0.253912 cumulative IPC: 0.253696 (Simulation time: 0 hr 13 min 45 sec) 
Heartbeat CPU 0 instructions: 150000000 cycles: 408837397 heartbeat IPC: 0.253617 cumulative IPC: 0.253688 (Simulation time: 0 hr 14 min 56 sec) 
*** Reached end of trace for Core: 0 Repeating trace: traces/spec2k17/srv_45.champsimtrace.xz
Heartbeat CPU 0 instructions: 160000001 cycles: 448065074 heartbeat IPC: 0.254922 cumulative IPC: 0.2538 (Simulation time: 0 hr 16 min 2 sec) 
Heartbeat CPU 0 instructions: 170000001 cycles: 487369864 heartbeat IPC: 0.254422 cumulative IPC: 0.253852 (Simulation time: 0 hr 17 min 14 sec) 
Heartbeat CPU 0 instructions: 180000000 cycles: 526942864 heartbeat IPC: 0.252698 cumulative IPC: 0.253762 (Simulation time: 0 hr 18 min 25 sec) 
*** Reached end of trace for Core: 0 Repeating trace: traces/spec2k17/srv_45.champsimtrace.xz
Heartbeat CPU 0 instructions: 190000001 cycles: 566116929 heartbeat IPC: 0.255271 cumulative IPC: 0.25387 (Simulation time: 0 hr 19 min 36 sec) 
Heartbeat CPU 0 instructions: 200000000 cycles: 605673931 heartbeat IPC: 0.2528 cumulative IPC: 0.253798 (Simulation time: 0 hr 20 min 47 sec) 
Heartbeat CPU 0 instructions: 210000003 cycles: 644930280 heartbeat IPC: 0.254736 cumulative IPC: 0.253856 (Simulation time: 0 hr 21 min 59 sec) 
*** Reached end of trace for Core: 0 Repeating trace: traces/spec2k17/srv_45.champsimtrace.xz
Heartbeat CPU 0 instructions: 220000000 cycles: 684014778 heartbeat IPC: 0.255856 cumulative IPC: 0.253973 (Simulation time: 0 hr 23 min 10 sec) 
Heartbeat CPU 0 instructions: 230000000 cycles: 723370946 heartbeat IPC: 0.25409 cumulative IPC: 0.25398 (Simulation time: 0 hr 24 min 19 sec) 
Heartbeat CPU 0 instructions: 240000000 cycles: 762714090 heartbeat IPC: 0.254174 cumulative IPC: 0.25399 (Simulation time: 0 hr 25 min 29 sec) 
*** Reached end of trace for Core: 0 Repeating trace: traces/spec2k17/srv_45.champsimtrace.xz
Heartbeat CPU 0 instructions: 250000003 cycles: 801828202 heartbeat IPC: 0.255662 cumulative IPC: 0.254073 (Simulation time: 0 hr 26 min 40 sec) 
Finished CPU 0 instructions: 200000002 cycles: 787175666 cumulative IPC: 0.254073 (Simulation time: 0 hr 26 min 40 sec) 

ChampSim completed all CPUs

Region of Interest Statistics

CPU 0 cumulative IPC: 0.254073 instructions: 200000002 cycles: 787175666
ITLB TOTAL     ACCESS:   36320850  HIT:   33573024  MISS:    2747826  HIT %:    92.4346  MISS %:    7.56542   MPKI: 13.7391
ITLB LOAD TRANSLATION ACCESS:   36320850  HIT:   33573024  MISS:    2747826  HIT %:    92.4346  MISS %:    7.56542   MPKI: 13.7391
ITLB PREFETCH  REQUESTED:          0  ISSUED:          0  USEFUL:          0  USELESS:          0
ITLB USEFUL LOAD PREFETCHES:          0 PREFETCH ISSUED TO LOWER LEVEL:          0  ACCURACY: -nan
ITLB TIMELY PREFETCHES:          0 LATE PREFETCHES: 0 DROPPED PREFETCHES: 0
ITLB PREFETCHES SAME FILL-ORIGIN LEVEL: 0 DIFFERENT FILL-ORIGIN LEVEL: 0
ITLB AVERAGE MISS LATENCY: 9.30195 cycles
ITLB RQ	ACCESS:   42972204	FORWARD:          0	MERGED:    5912087	TO_CACHE:   37060117

DTLB TOTAL     ACCESS:   49762446  HIT:   47304805  MISS:    2457641  HIT %:    95.0613  MISS %:    4.93875   MPKI: 12.2882
DTLB LOAD TRANSLATION ACCESS:   49762446  HIT:   47304805  MISS:    2457641  HIT %:    95.0613  MISS %:    4.93875   MPKI: 12.2882
DTLB PREFETCH  REQUESTED:          0  ISSUED:          0  USEFUL:          0  USELESS:          0
DTLB USEFUL LOAD PREFETCHES:          0 PREFETCH ISSUED TO LOWER LEVEL:          0  ACCURACY: -nan
DTLB TIMELY PREFETCHES:          0 LATE PREFETCHES: 0 DROPPED PREFETCHES: 0
DTLB PREFETCHES SAME FILL-ORIGIN LEVEL: 0 DIFFERENT FILL-ORIGIN LEVEL: 0
DTLB AVERAGE MISS LATENCY: 12.1023 cycles
DTLB RQ	ACCESS:   66022427	FORWARD:          0	MERGED:   16119539	TO_CACHE:   49902888

STLB TOTAL     ACCESS:    5205467  HIT:    5097361  MISS:     108106  HIT %:    97.9232  MISS %:    2.07678   MPKI: 0.54053
STLB LOAD TRANSLATION ACCESS:    5205467  HIT:    5097361  MISS:     108106  HIT %:    97.9232  MISS %:    2.07678   MPKI: 0.54053
STLB PREFETCH  REQUESTED:          0  ISSUED:          0  USEFUL:          0  USELESS:          0
STLB USEFUL LOAD PREFETCHES:          0 PREFETCH ISSUED TO LOWER LEVEL:          0  ACCURACY: -nan
STLB TIMELY PREFETCHES:          0 LATE PREFETCHES: 0 DROPPED PREFETCHES: 0
STLB PREFETCHES SAME FILL-ORIGIN LEVEL: 0 DIFFERENT FILL-ORIGIN LEVEL: 0
STLB AVERAGE MISS LATENCY: 77.78 cycles
STLB RQ	ACCESS:    5205467	FORWARD:          0	MERGED:          0	TO_CACHE:    5205467

STLB Hit, L1D data hit: 0
STLB Hit, L2C data hit: 0
STLB Hit, LLC data hit: 0
STLB Hit, LLC data miss: 0
STLB STLB hints to L2: 0
L1D TOTAL     ACCESS:   63281182  HIT:   57577617  MISS:    5703565  HIT %:    90.9869  MISS %:    9.01305   MPKI: 28.5178
L1D LOAD      ACCESS:   39520444  HIT:   35544092  MISS:    3976352  HIT %:    89.9385  MISS %:    10.0615   MPKI: 19.8818
L1D RFO       ACCESS:   23760738  HIT:   22033525  MISS:    1727213  HIT %:    92.7308  MISS %:    7.26919   MPKI: 8.63606
L1D PREFETCH  REQUESTED:          0  ISSUED:          0  USEFUL:          0  USELESS:          0
L1D USEFUL LOAD PREFETCHES:          0 PREFETCH ISSUED TO LOWER LEVEL:          0  ACCURACY: -nan
L1D TIMELY PREFETCHES:          0 LATE PREFETCHES: 0 DROPPED PREFETCHES: 0
L1D PREFETCHES SAME FILL-ORIGIN LEVEL: 0 DIFFERENT FILL-ORIGIN LEVEL: 0
L1D AVERAGE MISS LATENCY: 33.4386 cycles
L1D RQ	ACCESS:   50621890	FORWARD:          0	MERGED:   10740978	TO_CACHE:   39705572
L1D WQ	ACCESS:   26484793	FORWARD:     175340	MERGED:     167938	TO_CACHE:   26316855

L1D UNIQUE REGIONS ACCESSED: 0
L1D REGIONS CONFLICTS: 0
L1D Cross Page Prefetch Requests: 0
L1D Same Page Prefetch Requests: 0
L1D ROI Sum of L1D PQ occupancy: 0
L1D PREFETCHES PUSHED FROM L2C: 0
L1I TOTAL     ACCESS:   41294399  HIT:   28140673  MISS:   13153726  HIT %:    68.1465  MISS %:    31.8535   MPKI: 65.7686
L1I LOAD      ACCESS:   41294399  HIT:   28140673  MISS:   13153726  HIT %:    68.1465  MISS %:    31.8535   MPKI: 65.7686
L1I PREFETCH  REQUESTED:          0  ISSUED:          0  USEFUL:          0  USELESS:          0
L1I USEFUL LOAD PREFETCHES:          0 PREFETCH ISSUED TO LOWER LEVEL:          0  ACCURACY: -nan
L1I TIMELY PREFETCHES:          0 LATE PREFETCHES: 0 DROPPED PREFETCHES: 0
L1I PREFETCHES SAME FILL-ORIGIN LEVEL: 0 DIFFERENT FILL-ORIGIN LEVEL: 0
L1I AVERAGE MISS LATENCY: 15.9902 cycles
L1I RQ	ACCESS:   59964640	FORWARD:          0	MERGED:   16992436	TO_CACHE:   42972204

BTB TOTAL     ACCESS:   31973434  HIT:   16686947  MISS:   15286487  HIT %:      52.19  MISS %:      47.81   MPKI: 76.4324
BTB BRANCH_DIRECT_JUMP	ACCESS:    2345713  HIT:    1227110  MISS:    1118603
BTB BRANCH_INDIRECT	ACCESS:   14157352  HIT:    8110274  MISS:    6047078
BTB BRANCH_CONDITIONAL	ACCESS:    4344280  HIT:    3034534  MISS:    1309746
BTB BRANCH_DIRECT_CALL	ACCESS:    4151171  HIT:    2145079  MISS:    2006092
BTB BRANCH_INDIRECT_CALL	ACCESS:    1411897  HIT:     576080  MISS:     835817
BTB BRANCH_RETURN	ACCESS:    5563021  HIT:    1593870  MISS:    3969151
BTB BRANCH_OTHER ACCESS:          0  HIT:          0  MISS:          0

L2C TOTAL     ACCESS:   21831653  HIT:   19120156  MISS:    2711497  HIT %:      87.58  MISS %:      12.42   MPKI: 13.5575
L2C LOAD      ACCESS:   17130008  HIT:   15249420  MISS:    1880588  HIT %:    89.0217  MISS %:    10.9783   MPKI: 9.40294
L2C DATA LOAD MPKI: 5.28896
L2C INSTRUCTION LOAD MPKI: 4.11397
L2C RFO       ACCESS:    1727213  HIT:    1130186  MISS:     597027  HIT %:    65.4341  MISS %:    34.5659   MPKI: 2.98513
L2C WRITEBACK ACCESS:    2799450  HIT:    2654716  MISS:     144734  HIT %:    94.8299  MISS %:    5.17009   MPKI: 0.72367
L2C LOAD TRANSLATION ACCESS:     174982  HIT:      85834  MISS:      89148  HIT %:     49.053  MISS %:     50.947   MPKI: 0.44574
L2C PREFETCH  REQUESTED:          0  ISSUED:          0  USEFUL:          0  USELESS:          0
L2C USEFUL LOAD PREFETCHES:          0 PREFETCH ISSUED TO LOWER LEVEL:          0  ACCURACY: -nan
L2C TIMELY PREFETCHES:          0 LATE PREFETCHES: 0 DROPPED PREFETCHES: 0
L2C PREFETCHES SAME FILL-ORIGIN LEVEL: 0 DIFFERENT FILL-ORIGIN LEVEL: 0
L2C AVERAGE MISS LATENCY: 49.8017 cycles
L2C RQ	ACCESS:   19032274	FORWARD:          0	MERGED:          0	TO_CACHE:   19032204
L2C WQ	ACCESS:    2799450	FORWARD:         70	MERGED:          0	TO_CACHE:    2799450

L2C Instructions Evicting Data 424429
L2C Translations Evicting Data 70338
L2C Data Evicting Data 1215517
L2C Instructions Evicting Instructions 383585
L2C Translations Evicting Instructions 14957
L2C Data Evicting Instructions 371804
L2C Instructions Evicting Translations 14781
L2C Translations Evicting Translations 3853
L2C Data Evicting Translations 67499
L2C Dense regions hint from L2: 0
PSCL5 TOTAL     ACCESS:     108106  HIT:     108106  MISS:          0  HIT %:        100  MISS %:          0   MPKI: 0
PSCL5 LOAD TRANSLATION ACCESS:     108106  HIT:     108106  MISS:          0  HIT %:        100  MISS %:          0   MPKI: 0
PSCL5 PREFETCH  REQUESTED:          0  ISSUED:          0  USEFUL:          0  USELESS:          0
PSCL5 USEFUL LOAD PREFETCHES:          0 PREFETCH ISSUED TO LOWER LEVEL:          0  ACCURACY: -nan
PSCL5 TIMELY PREFETCHES:          0 LATE PREFETCHES: 0 DROPPED PREFETCHES: 0
PSCL5 PREFETCHES SAME FILL-ORIGIN LEVEL: 0 DIFFERENT FILL-ORIGIN LEVEL: 0

PSCL4 TOTAL     ACCESS:     106331  HIT:     105556  MISS:        775  HIT %:    99.2711  MISS %:   0.728856   MPKI: 0.003875
PSCL4 LOAD TRANSLATION ACCESS:     106331  HIT:     105556  MISS:        775  HIT %:    99.2711  MISS %:   0.728856   MPKI: 0.003875
PSCL4 PREFETCH  REQUESTED:          0  ISSUED:          0  USEFUL:          0  USELESS:          0
PSCL4 USEFUL LOAD PREFETCHES:          0 PREFETCH ISSUED TO LOWER LEVEL:          0  ACCURACY: -nan
PSCL4 TIMELY PREFETCHES:          0 LATE PREFETCHES: 0 DROPPED PREFETCHES: 0
PSCL4 PREFETCHES SAME FILL-ORIGIN LEVEL: 0 DIFFERENT FILL-ORIGIN LEVEL: 0

PSCL3 TOTAL     ACCESS:      94632  HIT:      75066  MISS:      19566  HIT %:    79.3241  MISS %:    20.6759   MPKI: 0.09783
PSCL3 LOAD TRANSLATION ACCESS:      94632  HIT:      75066  MISS:      19566  HIT %:    79.3241  MISS %:    20.6759   MPKI: 0.09783
PSCL3 PREFETCH  REQUESTED:          0  ISSUED:          0  USEFUL:          0  USELESS:          0
PSCL3 USEFUL LOAD PREFETCHES:          0 PREFETCH ISSUED TO LOWER LEVEL:          0  ACCURACY: -nan
PSCL3 TIMELY PREFETCHES:          0 LATE PREFETCHES: 0 DROPPED PREFETCHES: 0
PSCL3 PREFETCHES SAME FILL-ORIGIN LEVEL: 0 DIFFERENT FILL-ORIGIN LEVEL: 0

PSCL2 TOTAL     ACCESS:     108106  HIT:      61571  MISS:      46535  HIT %:    56.9543  MISS %:    43.0457   MPKI: 0.232675
PSCL2 LOAD TRANSLATION ACCESS:     108106  HIT:      61571  MISS:      46535  HIT %:    56.9543  MISS %:    43.0457   MPKI: 0.232675
PSCL2 PREFETCH  REQUESTED:          0  ISSUED:          0  USEFUL:          0  USELESS:          0
PSCL2 USEFUL LOAD PREFETCHES:          0 PREFETCH ISSUED TO LOWER LEVEL:          0  ACCURACY: -nan
PSCL2 TIMELY PREFETCHES:          0 LATE PREFETCHES: 0 DROPPED PREFETCHES: 0
PSCL2 PREFETCHES SAME FILL-ORIGIN LEVEL: 0 DIFFERENT FILL-ORIGIN LEVEL: 0

LLC TOTAL     ACCESS:    3512271  HIT:    3236566  MISS:     275705  HIT %:    92.1502  MISS %:    7.84976   MPKI: 1.37852
LLC LOAD      ACCESS:    1880583  HIT:    1737022  MISS:     143561  HIT %:    92.3661  MISS %:    7.63386   MPKI: 0.717805
LLC RFO       ACCESS:     597027  HIT:     488492  MISS:     108535  HIT %:    81.8208  MISS %:    18.1792   MPKI: 0.542675
LLC WRITEBACK ACCESS:     945513  HIT:     934902  MISS:      10611  HIT %:    98.8778  MISS %:    1.12225   MPKI: 0.053055
LLC LOAD TRANSLATION ACCESS:      89148  HIT:      76150  MISS:      12998  HIT %:    85.4198  MISS %:    14.5802   MPKI: 0.06499
LLC PREFETCH  REQUESTED:          0  ISSUED:          0  USEFUL:          0  USELESS:          0
LLC USEFUL LOAD PREFETCHES:          0 PREFETCH ISSUED TO LOWER LEVEL:          0  ACCURACY: -nan
LLC TIMELY PREFETCHES:          0 LATE PREFETCHES: 0 DROPPED PREFETCHES: 0
LLC PREFETCHES SAME FILL-ORIGIN LEVEL: 0 DIFFERENT FILL-ORIGIN LEVEL: 0
LLC AVERAGE MISS LATENCY: 210.49 cycles
LLC RQ	ACCESS:    2566764	FORWARD:          0	MERGED:          0	TO_CACHE:    2566758
LLC WQ	ACCESS:     945513	FORWARD:          6	MERGED:          0	TO_CACHE:     945513

LLC Dense regions hint to LLC: 0

RAW hits: 1583495
Loads Generated: 52205385
Loads sent to L1D: 50621890
Stores Generated: 26484784
Stores sent to L1D: 26484793
Major fault: 0 Minor fault: 6405
Allocated PAGES: 6405
CPU 0 L1d next line prefetcher final stats

-63,988
-62,1101
-61,1080
-60,1146
-59,937
-58,1075
-57,1230
-56,1186
-55,1245
-54,1395
-53,1431
-52,1308
-51,1071
-50,1196
-49,1237
-48,1128
-47,1225
-46,1396
-45,1392
-44,1197
-43,1568
-42,1276
-41,1339
-40,1418
-39,1493
-38,1365
-37,1388
-36,1382
-35,1571
-34,1380
-33,1397
-32,1441
-31,1733
-30,1781
-29,1882
-28,1684
-27,1950
-26,1944
-25,1841
-24,1888
-23,1526
-22,1803
-21,1799
-20,1735
-19,2189
-18,2288
-17,2058
-16,2427
-15,2253
-14,2398
-13,2587
-12,2211
-11,2636
-10,2781
-9,2755
-8,2841
-7,3083
-6,3171
-5,3210
-4,3730
-3,4442
-2,5053
-1,6929
0,4972
1,9720
2,7504
3,7255
4,5997
5,5044
6,4468
7,3943
8,3719
9,3945
10,3382
11,3739
12,3685
13,2799
14,2736
15,2742
16,2620
17,2703
18,2355
19,2646
20,2657
21,2500
22,2679
23,2413
24,2292
25,2770
26,2596
27,2224
28,2251
29,2428
30,2194
31,2346
32,2188
33,2203
34,2046
35,2135
36,2421
37,1915
38,1796
39,1948
40,1934
41,1912
42,1742
43,1933
44,1788
45,1869
46,1754
47,1595
48,1693
49,1477
50,1566
51,1507
52,1923
53,1673
54,1770
55,1821
56,1776
57,1655
58,1911
59,1747
60,1875
61,1848
62,1920
63,1747

DRAM Statistics
 CHANNEL 0
 RQ ROW_BUFFER_HIT:      69904  ROW_BUFFER_MISS:     195190
 DBUS_CONGESTED:         55
 WQ ROW_BUFFER_HIT:      23577  ROW_BUFFER_MISS:     118333  FULL:          0

 AVG_CONGESTED_CYCLE: 4
 All warmup complete: 2
Channel 0 Bank busy for read cycles: 0
Channel 0 Bank busy for write cycles: 0
Channel 0
Rank 0
0banks busy for read cycles: 757599653
0banks busy for write cycles: 47998
1banks busy for read cycles: 13611380
1banks busy for write cycles: 7460215
2banks busy for read cycles: 2117455
2banks busy for write cycles: 1440933
3banks busy for read cycles: 376401
3banks busy for write cycles: 383513
4banks busy for read cycles: 155997
4banks busy for write cycles: 184850
5banks busy for read cycles: 87844
5banks busy for write cycles: 115413
6banks busy for read cycles: 145683
6banks busy for write cycles: 99872
7banks busy for read cycles: 271127
7banks busy for write cycles: 183237
8banks busy for read cycles: 1270462
8banks busy for write cycles: 1623634

CPU 0 Branch Prediction Accuracy: 99.9107% MPKI: 0.163205 Average ROB Occupancy at Mispredict: 44.5731
Branch types
NOT_BRANCH: 163456051 81.728%
BRANCH_DIRECT_JUMP: 2345713 1.17286%
BRANCH_INDIRECT: 14157352 7.07868%
BRANCH_CONDITIONAL: 8914734 4.45737%
BRANCH_DIRECT_CALL: 4151171 2.07559%
BRANCH_INDIRECT_CALL: 1411897 0.705948%
BRANCH_RETURN: 5563021 2.78151%
BRANCH_OTHER: 0 0%

DRAM PAGES: 1048576
Allocated PAGES: 6405
