
*** ChampSim Multicore Out-of-Order Simulator ***

Warmup Instructions: 50000000
Simulation Instructions: 200000000
Number of CPUs: 1
LLC sets: 2048
LLC ways: 16
Off-chip DRAM Size: 4096 MB Channels: 1 Width: 64-bit Data Rate: 6400 MT/s
CPU 0 runs traces/spec2k17/srv_48.champsimtrace.xz
.xz
BTB has LRU replacement policy
ITLB has LRU replacement policy
DTLB has LRU replacement policy
STLB has LRU replacement policy
L1I has LRU replacement policy
CPU 0 L2C next line prefetcher
L1D has LRU replacement policy
Initialize SRRIP state for L2C
Initialize DRRIP state for LLC
Heartbeat CPU 0 instructions: 10000001 cycles: 2943108 heartbeat IPC: 3.39777 cumulative IPC: 3.39777 (Simulation time: 0 hr 0 min 42 sec) 
Heartbeat CPU 0 instructions: 20000001 cycles: 5878839 heartbeat IPC: 3.40631 cumulative IPC: 3.40203 (Simulation time: 0 hr 1 min 24 sec) 
Heartbeat CPU 0 instructions: 30000001 cycles: 8763710 heartbeat IPC: 3.46636 cumulative IPC: 3.42321 (Simulation time: 0 hr 2 min 5 sec) 
*** Reached end of trace for Core: 0 Repeating trace: traces/spec2k17/srv_48.champsimtrace.xz
Heartbeat CPU 0 instructions: 40000002 cycles: 11697729 heartbeat IPC: 3.40829 cumulative IPC: 3.41947 (Simulation time: 0 hr 2 min 46 sec) 
Heartbeat CPU 0 instructions: 50000001 cycles: 14633577 heartbeat IPC: 3.40617 cumulative IPC: 3.4168 (Simulation time: 0 hr 3 min 25 sec) 

Warmup complete CPU 0 instructions: 50000001 cycles: 14633577 (Simulation time: 0 hr 3 min 25 sec) 

Heartbeat CPU 0 instructions: 60000001 cycles: 34606634 heartbeat IPC: 0.500674 cumulative IPC: 0.500674 (Simulation time: 0 hr 4 min 22 sec) 
*** Reached end of trace for Core: 0 Repeating trace: traces/spec2k17/srv_48.champsimtrace.xz
Heartbeat CPU 0 instructions: 70000000 cycles: 56852702 heartbeat IPC: 0.449518 cumulative IPC: 0.473719 (Simulation time: 0 hr 5 min 22 sec) 
Heartbeat CPU 0 instructions: 80000002 cycles: 82304396 heartbeat IPC: 0.392901 cumulative IPC: 0.443323 (Simulation time: 0 hr 6 min 26 sec) 
Heartbeat CPU 0 instructions: 90000000 cycles: 103431265 heartbeat IPC: 0.473331 cumulative IPC: 0.450462 (Simulation time: 0 hr 7 min 23 sec) 
*** Reached end of trace for Core: 0 Repeating trace: traces/spec2k17/srv_48.champsimtrace.xz
Heartbeat CPU 0 instructions: 100000001 cycles: 125117945 heartbeat IPC: 0.461113 cumulative IPC: 0.452553 (Simulation time: 0 hr 8 min 25 sec) 
Heartbeat CPU 0 instructions: 110000000 cycles: 151342410 heartbeat IPC: 0.381323 cumulative IPC: 0.438889 (Simulation time: 0 hr 9 min 25 sec) 
Heartbeat CPU 0 instructions: 120000003 cycles: 171839133 heartbeat IPC: 0.487883 cumulative IPC: 0.445277 (Simulation time: 0 hr 10 min 21 sec) 
*** Reached end of trace for Core: 0 Repeating trace: traces/spec2k17/srv_48.champsimtrace.xz
Heartbeat CPU 0 instructions: 130000002 cycles: 194080294 heartbeat IPC: 0.449617 cumulative IPC: 0.445815 (Simulation time: 0 hr 11 min 25 sec) 
Heartbeat CPU 0 instructions: 140000003 cycles: 220175487 heartbeat IPC: 0.383212 cumulative IPC: 0.437867 (Simulation time: 0 hr 12 min 28 sec) 
Heartbeat CPU 0 instructions: 150000003 cycles: 240703288 heartbeat IPC: 0.487144 cumulative IPC: 0.442341 (Simulation time: 0 hr 13 min 26 sec) 
*** Reached end of trace for Core: 0 Repeating trace: traces/spec2k17/srv_48.champsimtrace.xz
Heartbeat CPU 0 instructions: 160000003 cycles: 263166397 heartbeat IPC: 0.445174 cumulative IPC: 0.442597 (Simulation time: 0 hr 14 min 27 sec) 
Heartbeat CPU 0 instructions: 170000001 cycles: 288713166 heartbeat IPC: 0.391439 cumulative IPC: 0.437829 (Simulation time: 0 hr 15 min 32 sec) 
Heartbeat CPU 0 instructions: 180000000 cycles: 309389010 heartbeat IPC: 0.483656 cumulative IPC: 0.441044 (Simulation time: 0 hr 16 min 32 sec) 
*** Reached end of trace for Core: 0 Repeating trace: traces/spec2k17/srv_48.champsimtrace.xz
Heartbeat CPU 0 instructions: 190000003 cycles: 332164342 heartbeat IPC: 0.439072 cumulative IPC: 0.440902 (Simulation time: 0 hr 17 min 34 sec) 
Heartbeat CPU 0 instructions: 200000000 cycles: 356561372 heartbeat IPC: 0.409886 cumulative IPC: 0.438689 (Simulation time: 0 hr 18 min 35 sec) 
Heartbeat CPU 0 instructions: 210000001 cycles: 378883255 heartbeat IPC: 0.447991 cumulative IPC: 0.439259 (Simulation time: 0 hr 19 min 33 sec) 
*** Reached end of trace for Core: 0 Repeating trace: traces/spec2k17/srv_48.champsimtrace.xz
Heartbeat CPU 0 instructions: 220000000 cycles: 400883762 heartbeat IPC: 0.454535 cumulative IPC: 0.440129 (Simulation time: 0 hr 20 min 34 sec) 
Heartbeat CPU 0 instructions: 230000003 cycles: 425481895 heartbeat IPC: 0.406535 cumulative IPC: 0.438118 (Simulation time: 0 hr 21 min 36 sec) 
Heartbeat CPU 0 instructions: 240000003 cycles: 448546043 heartbeat IPC: 0.433573 cumulative IPC: 0.437876 (Simulation time: 0 hr 22 min 36 sec) 
*** Reached end of trace for Core: 0 Repeating trace: traces/spec2k17/srv_48.champsimtrace.xz
Heartbeat CPU 0 instructions: 250000000 cycles: 469615481 heartbeat IPC: 0.474621 cumulative IPC: 0.439578 (Simulation time: 0 hr 23 min 35 sec) 
Finished CPU 0 instructions: 200000001 cycles: 454981920 cumulative IPC: 0.439578 (Simulation time: 0 hr 23 min 35 sec) 

ChampSim completed all CPUs

Region of Interest Statistics

CPU 0 cumulative IPC: 0.439578 instructions: 200000001 cycles: 454981920
ITLB TOTAL     ACCESS:   34347704  HIT:   33298734  MISS:    1048970  HIT %:     96.946  MISS %:    3.05397   MPKI: 5.24485
ITLB LOAD TRANSLATION ACCESS:   34347704  HIT:   33298734  MISS:    1048970  HIT %:     96.946  MISS %:    3.05397   MPKI: 5.24485
ITLB PREFETCH  REQUESTED:          0  ISSUED:          0  USEFUL:          0  USELESS:          0
ITLB USEFUL LOAD PREFETCHES:          0 PREFETCH ISSUED TO LOWER LEVEL:          0  ACCURACY: -nan
ITLB TIMELY PREFETCHES:          0 LATE PREFETCHES: 0 DROPPED PREFETCHES: 0
ITLB PREFETCHES SAME FILL-ORIGIN LEVEL: 0 DIFFERENT FILL-ORIGIN LEVEL: 0
ITLB AVERAGE MISS LATENCY: 9.98666 cycles
ITLB RQ	ACCESS:   39525426	FORWARD:          0	MERGED:    4880005	TO_CACHE:   34645421

DTLB TOTAL     ACCESS:   43026218  HIT:   41990948  MISS:    1035270  HIT %:    97.5939  MISS %:    2.40614   MPKI: 5.17635
DTLB LOAD TRANSLATION ACCESS:   43026218  HIT:   41990948  MISS:    1035270  HIT %:    97.5939  MISS %:    2.40614   MPKI: 5.17635
DTLB PREFETCH  REQUESTED:          0  ISSUED:          0  USEFUL:          0  USELESS:          0
DTLB USEFUL LOAD PREFETCHES:          0 PREFETCH ISSUED TO LOWER LEVEL:          0  ACCURACY: -nan
DTLB TIMELY PREFETCHES:          0 LATE PREFETCHES: 0 DROPPED PREFETCHES: 0
DTLB PREFETCHES SAME FILL-ORIGIN LEVEL: 0 DIFFERENT FILL-ORIGIN LEVEL: 0
DTLB AVERAGE MISS LATENCY: 14.4407 cycles
DTLB RQ	ACCESS:   58379344	FORWARD:          0	MERGED:   15272788	TO_CACHE:   43106556

STLB TOTAL     ACCESS:    2084239  HIT:    2005822  MISS:      78417  HIT %:    96.2376  MISS %:    3.76238   MPKI: 0.392085
STLB LOAD TRANSLATION ACCESS:    2084239  HIT:    2005822  MISS:      78417  HIT %:    96.2376  MISS %:    3.76238   MPKI: 0.392085
STLB PREFETCH  REQUESTED:          0  ISSUED:          0  USEFUL:          0  USELESS:          0
STLB USEFUL LOAD PREFETCHES:          0 PREFETCH ISSUED TO LOWER LEVEL:          0  ACCURACY: -nan
STLB TIMELY PREFETCHES:          0 LATE PREFETCHES: 0 DROPPED PREFETCHES: 0
STLB PREFETCHES SAME FILL-ORIGIN LEVEL: 0 DIFFERENT FILL-ORIGIN LEVEL: 0
STLB AVERAGE MISS LATENCY: 84.8407 cycles
STLB RQ	ACCESS:    2084239	FORWARD:          0	MERGED:          0	TO_CACHE:    2084239

STLB Hit, L1D data hit: 0
STLB Hit, L2C data hit: 0
STLB Hit, LLC data hit: 0
STLB Hit, LLC data miss: 0
STLB STLB hints to L2: 0
L1D TOTAL     ACCESS:   56302393  HIT:   53916270  MISS:    2386123  HIT %:     95.762  MISS %:    4.23805   MPKI: 11.9306
L1D LOAD      ACCESS:   36148487  HIT:   34581291  MISS:    1567196  HIT %:    95.6646  MISS %:    4.33544   MPKI: 7.83598
L1D RFO       ACCESS:   20153906  HIT:   19334979  MISS:     818927  HIT %:    95.9366  MISS %:    4.06337   MPKI: 4.09463
L1D PREFETCH  REQUESTED:          0  ISSUED:          0  USEFUL:          0  USELESS:          0
L1D USEFUL LOAD PREFETCHES:          0 PREFETCH ISSUED TO LOWER LEVEL:          0  ACCURACY: -nan
L1D TIMELY PREFETCHES:          0 LATE PREFETCHES: 0 DROPPED PREFETCHES: 0
L1D PREFETCHES SAME FILL-ORIGIN LEVEL: 0 DIFFERENT FILL-ORIGIN LEVEL: 0
L1D AVERAGE MISS LATENCY: 76.7996 cycles
L1D RQ	ACCESS:   51298233	FORWARD:          0	MERGED:   14816606	TO_CACHE:   36280191
L1D WQ	ACCESS:   22494716	FORWARD:     201436	MERGED:     395563	TO_CACHE:   22099153

L1D UNIQUE REGIONS ACCESSED: 0
L1D REGIONS CONFLICTS: 0
L1D Cross Page Prefetch Requests: 0
L1D Same Page Prefetch Requests: 0
L1D ROI Sum of L1D PQ occupancy: 0
L1D PREFETCHES PUSHED FROM L2C: 0
L1I TOTAL     ACCESS:   38914582  HIT:   34634090  MISS:    4280492  HIT %:    89.0003  MISS %:    10.9997   MPKI: 21.4025
L1I LOAD      ACCESS:   38914582  HIT:   34634090  MISS:    4280492  HIT %:    89.0003  MISS %:    10.9997   MPKI: 21.4025
L1I PREFETCH  REQUESTED:          0  ISSUED:          0  USEFUL:          0  USELESS:          0
L1I USEFUL LOAD PREFETCHES:          0 PREFETCH ISSUED TO LOWER LEVEL:          0  ACCURACY: -nan
L1I TIMELY PREFETCHES:          0 LATE PREFETCHES: 0 DROPPED PREFETCHES: 0
L1I PREFETCHES SAME FILL-ORIGIN LEVEL: 0 DIFFERENT FILL-ORIGIN LEVEL: 0
L1I AVERAGE MISS LATENCY: 22.7014 cycles
L1I RQ	ACCESS:   59790279	FORWARD:          0	MERGED:   20264853	TO_CACHE:   39525426

BTB TOTAL     ACCESS:   30523112  HIT:   24853883  MISS:    5669229  HIT %:    81.4264  MISS %:    18.5736   MPKI: 28.3461
BTB BRANCH_DIRECT_JUMP	ACCESS:    2968490  HIT:    2593261  MISS:     375229
BTB BRANCH_INDIRECT	ACCESS:   12251247  HIT:   10058571  MISS:    2192676
BTB BRANCH_CONDITIONAL	ACCESS:    7936948  HIT:    7475794  MISS:     461154
BTB BRANCH_DIRECT_CALL	ACCESS:    2719215  HIT:    2029531  MISS:     689684
BTB BRANCH_INDIRECT_CALL	ACCESS:     964038  HIT:     680841  MISS:     283197
BTB BRANCH_RETURN	ACCESS:    3683174  HIT:    2015885  MISS:    1667289
BTB BRANCH_OTHER ACCESS:          0  HIT:          0  MISS:          0

L2C TOTAL     ACCESS:    7995697  HIT:    5612175  MISS:    2383522  HIT %:    70.1899  MISS %:    29.8101   MPKI: 11.9176
L2C LOAD      ACCESS:    5847643  HIT:    4104840  MISS:    1742803  HIT %:    70.1965  MISS %:    29.8035   MPKI: 8.71401
L2C DATA LOAD MPKI: 3.21292
L2C INSTRUCTION LOAD MPKI: 5.50109
L2C RFO       ACCESS:     818915  HIT:     314966  MISS:     503949  HIT %:    38.4614  MISS %:    61.5386   MPKI: 2.51974
L2C WRITEBACK ACCESS:    1211589  HIT:    1140722  MISS:      70867  HIT %:    94.1509  MISS %:     5.8491   MPKI: 0.354335
L2C LOAD TRANSLATION ACCESS:     117550  HIT:      51647  MISS:      65903  HIT %:    43.9362  MISS %:    56.0638   MPKI: 0.329515
L2C PREFETCH  REQUESTED:          0  ISSUED:          0  USEFUL:          0  USELESS:          0
L2C USEFUL LOAD PREFETCHES:          0 PREFETCH ISSUED TO LOWER LEVEL:          0  ACCURACY: -nan
L2C TIMELY PREFETCHES:          0 LATE PREFETCHES: 0 DROPPED PREFETCHES: 0
L2C PREFETCHES SAME FILL-ORIGIN LEVEL: 0 DIFFERENT FILL-ORIGIN LEVEL: 0
L2C AVERAGE MISS LATENCY: 79.2425 cycles
L2C RQ	ACCESS:    6784165	FORWARD:          0	MERGED:          0	TO_CACHE:    6784108
L2C WQ	ACCESS:    1211589	FORWARD:         57	MERGED:          0	TO_CACHE:    1211589

L2C Instructions Evicting Data 540197
L2C Translations Evicting Data 35600
L2C Data Evicting Data 603882
L2C Instructions Evicting Instructions 532143
L2C Translations Evicting Instructions 28340
L2C Data Evicting Instructions 507952
L2C Instructions Evicting Translations 27879
L2C Translations Evicting Translations 1963
L2C Data Evicting Translations 34699
L2C Dense regions hint from L2: 0
PSCL5 TOTAL     ACCESS:      78417  HIT:      78417  MISS:          0  HIT %:        100  MISS %:          0   MPKI: 0
PSCL5 LOAD TRANSLATION ACCESS:      78417  HIT:      78417  MISS:          0  HIT %:        100  MISS %:          0   MPKI: 0
PSCL5 PREFETCH  REQUESTED:          0  ISSUED:          0  USEFUL:          0  USELESS:          0
PSCL5 USEFUL LOAD PREFETCHES:          0 PREFETCH ISSUED TO LOWER LEVEL:          0  ACCURACY: -nan
PSCL5 TIMELY PREFETCHES:          0 LATE PREFETCHES: 0 DROPPED PREFETCHES: 0
PSCL5 PREFETCHES SAME FILL-ORIGIN LEVEL: 0 DIFFERENT FILL-ORIGIN LEVEL: 0

PSCL4 TOTAL     ACCESS:      75352  HIT:      74462  MISS:        890  HIT %:    98.8189  MISS %:    1.18112   MPKI: 0.00445
PSCL4 LOAD TRANSLATION ACCESS:      75352  HIT:      74462  MISS:        890  HIT %:    98.8189  MISS %:    1.18112   MPKI: 0.00445
PSCL4 PREFETCH  REQUESTED:          0  ISSUED:          0  USEFUL:          0  USELESS:          0
PSCL4 USEFUL LOAD PREFETCHES:          0 PREFETCH ISSUED TO LOWER LEVEL:          0  ACCURACY: -nan
PSCL4 TIMELY PREFETCHES:          0 LATE PREFETCHES: 0 DROPPED PREFETCHES: 0
PSCL4 PREFETCHES SAME FILL-ORIGIN LEVEL: 0 DIFFERENT FILL-ORIGIN LEVEL: 0

PSCL3 TOTAL     ACCESS:      71560  HIT:      61733  MISS:       9827  HIT %:    86.2675  MISS %:    13.7325   MPKI: 0.049135
PSCL3 LOAD TRANSLATION ACCESS:      71560  HIT:      61733  MISS:       9827  HIT %:    86.2675  MISS %:    13.7325   MPKI: 0.049135
PSCL3 PREFETCH  REQUESTED:          0  ISSUED:          0  USEFUL:          0  USELESS:          0
PSCL3 USEFUL LOAD PREFETCHES:          0 PREFETCH ISSUED TO LOWER LEVEL:          0  ACCURACY: -nan
PSCL3 TIMELY PREFETCHES:          0 LATE PREFETCHES: 0 DROPPED PREFETCHES: 0
PSCL3 PREFETCHES SAME FILL-ORIGIN LEVEL: 0 DIFFERENT FILL-ORIGIN LEVEL: 0

PSCL2 TOTAL     ACCESS:      78417  HIT:      50001  MISS:      28416  HIT %:     63.763  MISS %:     36.237   MPKI: 0.14208
PSCL2 LOAD TRANSLATION ACCESS:      78417  HIT:      50001  MISS:      28416  HIT %:     63.763  MISS %:     36.237   MPKI: 0.14208
PSCL2 PREFETCH  REQUESTED:          0  ISSUED:          0  USEFUL:          0  USELESS:          0
PSCL2 USEFUL LOAD PREFETCHES:          0 PREFETCH ISSUED TO LOWER LEVEL:          0  ACCURACY: -nan
PSCL2 TIMELY PREFETCHES:          0 LATE PREFETCHES: 0 DROPPED PREFETCHES: 0
PSCL2 PREFETCHES SAME FILL-ORIGIN LEVEL: 0 DIFFERENT FILL-ORIGIN LEVEL: 0

LLC TOTAL     ACCESS:    2962756  HIT:    2363617  MISS:     599139  HIT %:    79.7776  MISS %:    20.2224   MPKI: 2.99569
LLC LOAD      ACCESS:    1742803  HIT:    1459324  MISS:     283479  HIT %:    83.7343  MISS %:    16.2657   MPKI: 1.41739
LLC RFO       ACCESS:     503949  HIT:     209316  MISS:     294633  HIT %:    41.5352  MISS %:    58.4648   MPKI: 1.47316
LLC WRITEBACK ACCESS:     650101  HIT:     644193  MISS:       5908  HIT %:    99.0912  MISS %:   0.908782   MPKI: 0.02954
LLC LOAD TRANSLATION ACCESS:      65903  HIT:      50784  MISS:      15119  HIT %:    77.0587  MISS %:    22.9413   MPKI: 0.075595
LLC PREFETCH  REQUESTED:          0  ISSUED:          0  USEFUL:          0  USELESS:          0
LLC USEFUL LOAD PREFETCHES:          0 PREFETCH ISSUED TO LOWER LEVEL:          0  ACCURACY: -nan
LLC TIMELY PREFETCHES:          0 LATE PREFETCHES: 0 DROPPED PREFETCHES: 0
LLC PREFETCHES SAME FILL-ORIGIN LEVEL: 0 DIFFERENT FILL-ORIGIN LEVEL: 0
LLC AVERAGE MISS LATENCY: 199.445 cycles
LLC RQ	ACCESS:    2312655	FORWARD:          0	MERGED:          0	TO_CACHE:    2312655
LLC WQ	ACCESS:     650101	FORWARD:          0	MERGED:          0	TO_CACHE:     650101

LLC Dense regions hint to LLC: 0

RAW hits: 2471792
Loads Generated: 53770025
Loads sent to L1D: 51298233
Stores Generated: 22494708
Stores sent to L1D: 22494716
Major fault: 0 Minor fault: 5602
Allocated PAGES: 5602
CPU 0 L1d next line prefetcher final stats

-63,533
-62,578
-61,525
-60,520
-59,501
-58,495
-57,516
-56,503
-55,534
-54,551
-53,514
-52,582
-51,532
-50,586
-49,579
-48,552
-47,538
-46,638
-45,601
-44,544
-43,639
-42,589
-41,581
-40,636
-39,548
-38,627
-37,596
-36,643
-35,669
-34,641
-33,674
-32,697
-31,738
-30,733
-29,746
-28,725
-27,774
-26,790
-25,751
-24,784
-23,704
-22,716
-21,771
-20,723
-19,818
-18,831
-17,831
-16,952
-15,977
-14,1028
-13,1043
-12,1056
-11,1081
-10,1107
-9,1227
-8,1237
-7,1154
-6,1354
-5,1306
-4,1447
-3,1586
-2,1955
-1,2724
0,2052
1,5365
2,4559
3,4505
4,3979
5,3549
6,3479
7,3188
8,3085
9,3084
10,2951
11,2938
12,3051
13,2698
14,2673
15,2682
16,2707
17,2647
18,2556
19,2675
20,2536
21,2449
22,2538
23,2508
24,2300
25,2453
26,2509
27,2358
28,2361
29,2430
30,2305
31,2290
32,2291
33,2306
34,2217
35,2314
36,2285
37,2147
38,2242
39,2174
40,2065
41,2000
42,2078
43,2030
44,2017
45,1989
46,1950
47,1858
48,1931
49,1868
50,1875
51,1892
52,2033
53,1850
54,1936
55,1943
56,1822
57,1885
58,1885
59,1801
60,1822
61,1900
62,1929
63,1757

DRAM Statistics
 CHANNEL 0
 RQ ROW_BUFFER_HIT:     155521  ROW_BUFFER_MISS:     437710
 DBUS_CONGESTED:        313
 WQ ROW_BUFFER_HIT:      57991  ROW_BUFFER_MISS:     308055  FULL:          0

 AVG_CONGESTED_CYCLE: 4
 All warmup complete: 2
Channel 0 Bank busy for read cycles: 0
Channel 0 Bank busy for write cycles: 0
Channel 0
Rank 0
0banks busy for read cycles: 380985958
0banks busy for write cycles: 132081
1banks busy for read cycles: 30977756
1banks busy for write cycles: 18374050
2banks busy for read cycles: 7465619
2banks busy for write cycles: 5877073
3banks busy for read cycles: 1284232
3banks busy for write cycles: 1817584
4banks busy for read cycles: 509833
4banks busy for write cycles: 799396
5banks busy for read cycles: 276710
5banks busy for write cycles: 423843
6banks busy for read cycles: 276681
6banks busy for write cycles: 276659
7banks busy for read cycles: 382874
7banks busy for write cycles: 366143
8banks busy for read cycles: 2031640
8banks busy for write cycles: 2723789

CPU 0 Branch Prediction Accuracy: 99.5281% MPKI: 0.817655 Average ROB Occupancy at Mispredict: 23.6038
Branch types
NOT_BRANCH: 165342369 82.6712%
BRANCH_DIRECT_JUMP: 2968490 1.48424%
BRANCH_INDIRECT: 12251247 6.12562%
BRANCH_CONDITIONAL: 12071175 6.03559%
BRANCH_DIRECT_CALL: 2719215 1.35961%
BRANCH_INDIRECT_CALL: 964038 0.482019%
BRANCH_RETURN: 3683174 1.84159%
BRANCH_OTHER: 0 0%

DRAM PAGES: 1048576
Allocated PAGES: 5602
