
*** ChampSim Multicore Out-of-Order Simulator ***

Warmup Instructions: 50000000
Simulation Instructions: 200000000
Number of CPUs: 1
LLC sets: 2048
LLC ways: 16
Off-chip DRAM Size: 4096 MB Channels: 1 Width: 64-bit Data Rate: 6400 MT/s
CPU 0 runs traces/spec2k17/srv_74.champsimtrace.xz
.xz
BTB has LRU replacement policy
ITLB has LRU replacement policy
DTLB has LRU replacement policy
STLB has LRU replacement policy
L1I has LRU replacement policy
CPU 0 L2C next line prefetcher
L1D has LRU replacement policy
Initialize SRRIP state for L2C
Initialize DRRIP state for LLC
Heartbeat CPU 0 instructions: 10000003 cycles: 2822626 heartbeat IPC: 3.5428 cumulative IPC: 3.5428 (Simulation time: 0 hr 0 min 38 sec) 
Heartbeat CPU 0 instructions: 20000003 cycles: 5640769 heartbeat IPC: 3.54844 cumulative IPC: 3.54562 (Simulation time: 0 hr 1 min 15 sec) 
Heartbeat CPU 0 instructions: 30000002 cycles: 8460365 heartbeat IPC: 3.54661 cumulative IPC: 3.54595 (Simulation time: 0 hr 1 min 50 sec) 
*** Reached end of trace for Core: 0 Repeating trace: traces/spec2k17/srv_74.champsimtrace.xz
Heartbeat CPU 0 instructions: 40000000 cycles: 11276412 heartbeat IPC: 3.55108 cumulative IPC: 3.54723 (Simulation time: 0 hr 2 min 27 sec) 
Heartbeat CPU 0 instructions: 50000002 cycles: 14094579 heartbeat IPC: 3.54841 cumulative IPC: 3.54746 (Simulation time: 0 hr 3 min 4 sec) 

Warmup complete CPU 0 instructions: 50000002 cycles: 14094579 (Simulation time: 0 hr 3 min 4 sec) 

Heartbeat CPU 0 instructions: 60000002 cycles: 46310320 heartbeat IPC: 0.310407 cumulative IPC: 0.310407 (Simulation time: 0 hr 4 min 11 sec) 
*** Reached end of trace for Core: 0 Repeating trace: traces/spec2k17/srv_74.champsimtrace.xz
Heartbeat CPU 0 instructions: 70000000 cycles: 78270269 heartbeat IPC: 0.312892 cumulative IPC: 0.311644 (Simulation time: 0 hr 5 min 17 sec) 
Heartbeat CPU 0 instructions: 80000000 cycles: 110539040 heartbeat IPC: 0.309897 cumulative IPC: 0.31106 (Simulation time: 0 hr 6 min 12 sec) 
Heartbeat CPU 0 instructions: 90000001 cycles: 142720619 heartbeat IPC: 0.310737 cumulative IPC: 0.310979 (Simulation time: 0 hr 7 min 2 sec) 
*** Reached end of trace for Core: 0 Repeating trace: traces/spec2k17/srv_74.champsimtrace.xz
Heartbeat CPU 0 instructions: 100000000 cycles: 174629985 heartbeat IPC: 0.313388 cumulative IPC: 0.311458 (Simulation time: 0 hr 7 min 49 sec) 
Heartbeat CPU 0 instructions: 110000000 cycles: 206906614 heartbeat IPC: 0.309822 cumulative IPC: 0.311184 (Simulation time: 0 hr 8 min 42 sec) 
Heartbeat CPU 0 instructions: 120000002 cycles: 239007011 heartbeat IPC: 0.311523 cumulative IPC: 0.311232 (Simulation time: 0 hr 9 min 30 sec) 
*** Reached end of trace for Core: 0 Repeating trace: traces/spec2k17/srv_74.champsimtrace.xz
Heartbeat CPU 0 instructions: 130000001 cycles: 270992579 heartbeat IPC: 0.312641 cumulative IPC: 0.311408 (Simulation time: 0 hr 10 min 27 sec) 
Heartbeat CPU 0 instructions: 140000000 cycles: 303153079 heartbeat IPC: 0.31094 cumulative IPC: 0.311356 (Simulation time: 0 hr 11 min 8 sec) 
Heartbeat CPU 0 instructions: 150000000 cycles: 335374491 heartbeat IPC: 0.310353 cumulative IPC: 0.311255 (Simulation time: 0 hr 11 min 57 sec) 
*** Reached end of trace for Core: 0 Repeating trace: traces/spec2k17/srv_74.champsimtrace.xz
Heartbeat CPU 0 instructions: 160000003 cycles: 367296183 heartbeat IPC: 0.313267 cumulative IPC: 0.311437 (Simulation time: 0 hr 12 min 37 sec) 
Heartbeat CPU 0 instructions: 170000002 cycles: 399463118 heartbeat IPC: 0.310878 cumulative IPC: 0.31139 (Simulation time: 0 hr 13 min 17 sec) 
Heartbeat CPU 0 instructions: 180000000 cycles: 431653614 heartbeat IPC: 0.310651 cumulative IPC: 0.311333 (Simulation time: 0 hr 13 min 57 sec) 
*** Reached end of trace for Core: 0 Repeating trace: traces/spec2k17/srv_74.champsimtrace.xz
Heartbeat CPU 0 instructions: 190000003 cycles: 463628808 heartbeat IPC: 0.312743 cumulative IPC: 0.311433 (Simulation time: 0 hr 14 min 36 sec) 
Heartbeat CPU 0 instructions: 200000000 cycles: 495780332 heartbeat IPC: 0.311027 cumulative IPC: 0.311406 (Simulation time: 0 hr 15 min 15 sec) 
Heartbeat CPU 0 instructions: 210000001 cycles: 527903092 heartbeat IPC: 0.311306 cumulative IPC: 0.3114 (Simulation time: 0 hr 15 min 54 sec) 
*** Reached end of trace for Core: 0 Repeating trace: traces/spec2k17/srv_74.champsimtrace.xz
Heartbeat CPU 0 instructions: 220000000 cycles: 559872190 heartbeat IPC: 0.312802 cumulative IPC: 0.311482 (Simulation time: 0 hr 16 min 34 sec) 
Heartbeat CPU 0 instructions: 230000002 cycles: 592042507 heartbeat IPC: 0.310846 cumulative IPC: 0.311447 (Simulation time: 0 hr 17 min 13 sec) 
Heartbeat CPU 0 instructions: 240000001 cycles: 624142542 heartbeat IPC: 0.311526 cumulative IPC: 0.311451 (Simulation time: 0 hr 17 min 52 sec) 
*** Reached end of trace for Core: 0 Repeating trace: traces/spec2k17/srv_74.champsimtrace.xz
Heartbeat CPU 0 instructions: 250000003 cycles: 656178463 heartbeat IPC: 0.31215 cumulative IPC: 0.311486 (Simulation time: 0 hr 18 min 32 sec) 
Finished CPU 0 instructions: 200000001 cycles: 642083884 cumulative IPC: 0.311486 (Simulation time: 0 hr 18 min 32 sec) 

ChampSim completed all CPUs

Region of Interest Statistics

CPU 0 cumulative IPC: 0.311486 instructions: 200000001 cycles: 642083884
ITLB TOTAL     ACCESS:   34703678  HIT:   32654250  MISS:    2049428  HIT %:    94.0945  MISS %:    5.90551   MPKI: 10.2471
ITLB LOAD TRANSLATION ACCESS:   34703678  HIT:   32654250  MISS:    2049428  HIT %:    94.0945  MISS %:    5.90551   MPKI: 10.2471
ITLB PREFETCH  REQUESTED:          0  ISSUED:          0  USEFUL:          0  USELESS:          0
ITLB USEFUL LOAD PREFETCHES:          0 PREFETCH ISSUED TO LOWER LEVEL:          0  ACCURACY: -nan
ITLB TIMELY PREFETCHES:          0 LATE PREFETCHES: 0 DROPPED PREFETCHES: 0
ITLB PREFETCHES SAME FILL-ORIGIN LEVEL: 0 DIFFERENT FILL-ORIGIN LEVEL: 0
ITLB AVERAGE MISS LATENCY: 9.0429 cycles
ITLB RQ	ACCESS:   40951623	FORWARD:          0	MERGED:    5758822	TO_CACHE:   35192801

DTLB TOTAL     ACCESS:   46510878  HIT:   44665623  MISS:    1845255  HIT %:    96.0326  MISS %:    3.96736   MPKI: 9.22627
DTLB LOAD TRANSLATION ACCESS:   46510878  HIT:   44665623  MISS:    1845255  HIT %:    96.0326  MISS %:    3.96736   MPKI: 9.22627
DTLB PREFETCH  REQUESTED:          0  ISSUED:          0  USEFUL:          0  USELESS:          0
DTLB USEFUL LOAD PREFETCHES:          0 PREFETCH ISSUED TO LOWER LEVEL:          0  ACCURACY: -nan
DTLB TIMELY PREFETCHES:          0 LATE PREFETCHES: 0 DROPPED PREFETCHES: 0
DTLB PREFETCHES SAME FILL-ORIGIN LEVEL: 0 DIFFERENT FILL-ORIGIN LEVEL: 0
DTLB AVERAGE MISS LATENCY: 9.17662 cycles
DTLB RQ	ACCESS:   61175497	FORWARD:          0	MERGED:   14602474	TO_CACHE:   46573023

STLB TOTAL     ACCESS:    3894683  HIT:    3885387  MISS:       9296  HIT %:    99.7613  MISS %:   0.238684   MPKI: 0.04648
STLB LOAD TRANSLATION ACCESS:    3894683  HIT:    3885387  MISS:       9296  HIT %:    99.7613  MISS %:   0.238684   MPKI: 0.04648
STLB PREFETCH  REQUESTED:          0  ISSUED:          0  USEFUL:          0  USELESS:          0
STLB USEFUL LOAD PREFETCHES:          0 PREFETCH ISSUED TO LOWER LEVEL:          0  ACCURACY: -nan
STLB TIMELY PREFETCHES:          0 LATE PREFETCHES: 0 DROPPED PREFETCHES: 0
STLB PREFETCHES SAME FILL-ORIGIN LEVEL: 0 DIFFERENT FILL-ORIGIN LEVEL: 0
STLB AVERAGE MISS LATENCY: 42.1242 cycles
STLB RQ	ACCESS:    3894683	FORWARD:          0	MERGED:          0	TO_CACHE:    3894683

STLB Hit, L1D data hit: 0
STLB Hit, L2C data hit: 0
STLB Hit, LLC data hit: 0
STLB Hit, LLC data miss: 0
STLB STLB hints to L2: 0
L1D TOTAL     ACCESS:   59293970  HIT:   55356901  MISS:    3937069  HIT %:    93.3601  MISS %:    6.63991   MPKI: 19.6853
L1D LOAD      ACCESS:   34229257  HIT:   31409261  MISS:    2819996  HIT %:    91.7614  MISS %:    8.23855   MPKI: 14.1
L1D RFO       ACCESS:   25064713  HIT:   23947640  MISS:    1117073  HIT %:    95.5432  MISS %:    4.45676   MPKI: 5.58536
L1D PREFETCH  REQUESTED:          0  ISSUED:          0  USEFUL:          0  USELESS:          0
L1D USEFUL LOAD PREFETCHES:          0 PREFETCH ISSUED TO LOWER LEVEL:          0  ACCURACY: -nan
L1D TIMELY PREFETCHES:          0 LATE PREFETCHES: 0 DROPPED PREFETCHES: 0
L1D PREFETCHES SAME FILL-ORIGIN LEVEL: 0 DIFFERENT FILL-ORIGIN LEVEL: 0
L1D AVERAGE MISS LATENCY: 19.4086 cycles
L1D RQ	ACCESS:   47459065	FORWARD:          0	MERGED:   12794310	TO_CACHE:   34364303
L1D WQ	ACCESS:   26978308	FORWARD:     300452	MERGED:     167114	TO_CACHE:   26811194

L1D UNIQUE REGIONS ACCESSED: 0
L1D REGIONS CONFLICTS: 0
L1D Cross Page Prefetch Requests: 0
L1D Same Page Prefetch Requests: 0
L1D ROI Sum of L1D PQ occupancy: 0
L1D PREFETCHES PUSHED FROM L2C: 0
L1I TOTAL     ACCESS:   39418245  HIT:   28746152  MISS:   10672093  HIT %:     72.926  MISS %:     27.074   MPKI: 53.3605
L1I LOAD      ACCESS:   39418245  HIT:   28746152  MISS:   10672093  HIT %:     72.926  MISS %:     27.074   MPKI: 53.3605
L1I PREFETCH  REQUESTED:          0  ISSUED:          0  USEFUL:          0  USELESS:          0
L1I USEFUL LOAD PREFETCHES:          0 PREFETCH ISSUED TO LOWER LEVEL:          0  ACCURACY: -nan
L1I TIMELY PREFETCHES:          0 LATE PREFETCHES: 0 DROPPED PREFETCHES: 0
L1I PREFETCHES SAME FILL-ORIGIN LEVEL: 0 DIFFERENT FILL-ORIGIN LEVEL: 0
L1I AVERAGE MISS LATENCY: 16.551 cycles
L1I RQ	ACCESS:   58012504	FORWARD:          0	MERGED:   17060881	TO_CACHE:   40951623

BTB TOTAL     ACCESS:   30033468  HIT:   17281461  MISS:   12752007  HIT %:    57.5407  MISS %:    42.4593   MPKI: 63.76
BTB BRANCH_DIRECT_JUMP	ACCESS:    2021885  HIT:    1134568  MISS:     887317
BTB BRANCH_INDIRECT	ACCESS:   11920984  HIT:    7083121  MISS:    4837863
BTB BRANCH_CONDITIONAL	ACCESS:    7473546  HIT:    6138948  MISS:    1334598
BTB BRANCH_DIRECT_CALL	ACCESS:    3633788  HIT:    1531063  MISS:    2102725
BTB BRANCH_INDIRECT_CALL	ACCESS:     674712  HIT:     268267  MISS:     406445
BTB BRANCH_RETURN	ACCESS:    4308553  HIT:    1125494  MISS:    3183059
BTB BRANCH_OTHER ACCESS:          0  HIT:          0  MISS:          0

L2C TOTAL     ACCESS:   16579624  HIT:   15057274  MISS:    1522350  HIT %:    90.8179  MISS %:    9.18205   MPKI: 7.61175
L2C LOAD      ACCESS:   13492077  HIT:   12260632  MISS:    1231445  HIT %:    90.8728  MISS %:    9.12717   MPKI: 6.15722
L2C DATA LOAD MPKI: 1.75404
L2C INSTRUCTION LOAD MPKI: 4.40318
L2C RFO       ACCESS:    1117073  HIT:     917507  MISS:     199566  HIT %:    82.1349  MISS %:    17.8651   MPKI: 0.99783
L2C WRITEBACK ACCESS:    1960615  HIT:    1875907  MISS:      84708  HIT %:    95.6795  MISS %:    4.32048   MPKI: 0.42354
L2C LOAD TRANSLATION ACCESS:       9859  HIT:       3228  MISS:       6631  HIT %:    32.7417  MISS %:    67.2583   MPKI: 0.033155
L2C PREFETCH  REQUESTED:          0  ISSUED:          0  USEFUL:          0  USELESS:          0
L2C USEFUL LOAD PREFETCHES:          0 PREFETCH ISSUED TO LOWER LEVEL:          0  ACCURACY: -nan
L2C TIMELY PREFETCHES:          0 LATE PREFETCHES: 0 DROPPED PREFETCHES: 0
L2C PREFETCHES SAME FILL-ORIGIN LEVEL: 0 DIFFERENT FILL-ORIGIN LEVEL: 0
L2C AVERAGE MISS LATENCY: 28.829 cycles
L2C RQ	ACCESS:   14619021	FORWARD:          0	MERGED:          0	TO_CACHE:   14619009
L2C WQ	ACCESS:    1960615	FORWARD:         12	MERGED:          0	TO_CACHE:    1960615

L2C Instructions Evicting Data 324871
L2C Translations Evicting Data 4588
L2C Data Evicting Data 272051
L2C Instructions Evicting Instructions 553609
L2C Translations Evicting Instructions 1927
L2C Data Evicting Instructions 274058
L2C Instructions Evicting Translations 2156
L2C Translations Evicting Translations 116
L2C Data Evicting Translations 4266
L2C Dense regions hint from L2: 0
PSCL5 TOTAL     ACCESS:       9296  HIT:       9296  MISS:          0  HIT %:        100  MISS %:          0   MPKI: 0
PSCL5 LOAD TRANSLATION ACCESS:       9296  HIT:       9296  MISS:          0  HIT %:        100  MISS %:          0   MPKI: 0
PSCL5 PREFETCH  REQUESTED:          0  ISSUED:          0  USEFUL:          0  USELESS:          0
PSCL5 USEFUL LOAD PREFETCHES:          0 PREFETCH ISSUED TO LOWER LEVEL:          0  ACCURACY: -nan
PSCL5 TIMELY PREFETCHES:          0 LATE PREFETCHES: 0 DROPPED PREFETCHES: 0
PSCL5 PREFETCHES SAME FILL-ORIGIN LEVEL: 0 DIFFERENT FILL-ORIGIN LEVEL: 0

PSCL4 TOTAL     ACCESS:       7652  HIT:       7601  MISS:         51  HIT %:    99.3335  MISS %:   0.666492   MPKI: 0.000255
PSCL4 LOAD TRANSLATION ACCESS:       7652  HIT:       7601  MISS:         51  HIT %:    99.3335  MISS %:   0.666492   MPKI: 0.000255
PSCL4 PREFETCH  REQUESTED:          0  ISSUED:          0  USEFUL:          0  USELESS:          0
PSCL4 USEFUL LOAD PREFETCHES:          0 PREFETCH ISSUED TO LOWER LEVEL:          0  ACCURACY: -nan
PSCL4 TIMELY PREFETCHES:          0 LATE PREFETCHES: 0 DROPPED PREFETCHES: 0
PSCL4 PREFETCHES SAME FILL-ORIGIN LEVEL: 0 DIFFERENT FILL-ORIGIN LEVEL: 0

PSCL3 TOTAL     ACCESS:       8744  HIT:       8664  MISS:         80  HIT %:    99.0851  MISS %:   0.914913   MPKI: 0.0004
PSCL3 LOAD TRANSLATION ACCESS:       8744  HIT:       8664  MISS:         80  HIT %:    99.0851  MISS %:   0.914913   MPKI: 0.0004
PSCL3 PREFETCH  REQUESTED:          0  ISSUED:          0  USEFUL:          0  USELESS:          0
PSCL3 USEFUL LOAD PREFETCHES:          0 PREFETCH ISSUED TO LOWER LEVEL:          0  ACCURACY: -nan
PSCL3 TIMELY PREFETCHES:          0 LATE PREFETCHES: 0 DROPPED PREFETCHES: 0
PSCL3 PREFETCHES SAME FILL-ORIGIN LEVEL: 0 DIFFERENT FILL-ORIGIN LEVEL: 0

PSCL2 TOTAL     ACCESS:       9296  HIT:       8864  MISS:        432  HIT %:    95.3528  MISS %:    4.64716   MPKI: 0.00216
PSCL2 LOAD TRANSLATION ACCESS:       9296  HIT:       8864  MISS:        432  HIT %:    95.3528  MISS %:    4.64716   MPKI: 0.00216
PSCL2 PREFETCH  REQUESTED:          0  ISSUED:          0  USEFUL:          0  USELESS:          0
PSCL2 USEFUL LOAD PREFETCHES:          0 PREFETCH ISSUED TO LOWER LEVEL:          0  ACCURACY: -nan
PSCL2 TIMELY PREFETCHES:          0 LATE PREFETCHES: 0 DROPPED PREFETCHES: 0
PSCL2 PREFETCHES SAME FILL-ORIGIN LEVEL: 0 DIFFERENT FILL-ORIGIN LEVEL: 0

LLC TOTAL     ACCESS:    1714280  HIT:    1709293  MISS:       4987  HIT %:    99.7091  MISS %:   0.290909   MPKI: 0.024935
LLC LOAD      ACCESS:    1231445  HIT:    1228545  MISS:       2900  HIT %:    99.7645  MISS %:   0.235496   MPKI: 0.0145
LLC RFO       ACCESS:     199565  HIT:     197541  MISS:       2024  HIT %:    98.9858  MISS %:    1.01421   MPKI: 0.01012
LLC WRITEBACK ACCESS:     276639  HIT:     276623  MISS:         16  HIT %:    99.9942  MISS %: 0.00578371   MPKI: 8e-05
LLC LOAD TRANSLATION ACCESS:       6631  HIT:       6584  MISS:         47  HIT %:    99.2912  MISS %:   0.708792   MPKI: 0.000235
LLC PREFETCH  REQUESTED:          0  ISSUED:          0  USEFUL:          0  USELESS:          0
LLC USEFUL LOAD PREFETCHES:          0 PREFETCH ISSUED TO LOWER LEVEL:          0  ACCURACY: -nan
LLC TIMELY PREFETCHES:          0 LATE PREFETCHES: 0 DROPPED PREFETCHES: 0
LLC PREFETCHES SAME FILL-ORIGIN LEVEL: 0 DIFFERENT FILL-ORIGIN LEVEL: 0
LLC AVERAGE MISS LATENCY: 152.074 cycles
LLC RQ	ACCESS:    1437642	FORWARD:          0	MERGED:          0	TO_CACHE:    1437641
LLC WQ	ACCESS:     276638	FORWARD:          1	MERGED:          0	TO_CACHE:     276638

LLC Dense regions hint to LLC: 0

RAW hits: 1439774
Loads Generated: 48898839
Loads sent to L1D: 47459065
Stores Generated: 26978300
Stores sent to L1D: 26978308
Major fault: 0 Minor fault: 1920
Allocated PAGES: 1920
CPU 0 L1d next line prefetcher final stats

-63,359
-62,318
-61,309
-60,359
-59,297
-58,303
-57,377
-56,380
-55,272
-54,260
-53,298
-52,266
-51,297
-50,331
-49,229
-48,312
-47,225
-46,324
-45,326
-44,346
-43,287
-42,297
-41,274
-40,381
-39,346
-38,357
-37,305
-36,422
-35,358
-34,439
-33,457
-32,450
-31,360
-30,383
-29,314
-28,435
-27,344
-26,419
-25,482
-24,504
-23,619
-22,576
-21,659
-20,712
-19,727
-18,784
-17,907
-16,965
-15,898
-14,1211
-13,1215
-12,1285
-11,1325
-10,1502
-9,1538
-8,1849
-7,1963
-6,2081
-5,2115
-4,2372
-3,2880
-2,4121
-1,5301
0,4839
1,8109
2,7173
3,5626
4,5153
5,4595
6,4567
7,4024
8,3936
9,3547
10,3285
11,3162
12,2898
13,2551
14,2312
15,2193
16,2168
17,2132
18,1830
19,1655
20,1545
21,1439
22,1247
23,1433
24,1313
25,1324
26,1192
27,1084
28,935
29,915
30,917
31,1044
32,954
33,915
34,778
35,806
36,842
37,835
38,730
39,735
40,766
41,641
42,591
43,519
44,523
45,534
46,503
47,480
48,518
49,423
50,452
51,470
52,446
53,490
54,547
55,557
56,548
57,602
58,503
59,496
60,489
61,472
62,456
63,489

DRAM Statistics
 CHANNEL 0
 RQ ROW_BUFFER_HIT:        913  ROW_BUFFER_MISS:       4058
 DBUS_CONGESTED:          3
 WQ ROW_BUFFER_HIT:        156  ROW_BUFFER_MISS:       2172  FULL:          0

 AVG_CONGESTED_CYCLE: 3
 All warmup complete: 2
Channel 0 Bank busy for read cycles: 0
Channel 0 Bank busy for write cycles: 0
Channel 0
Rank 0
0banks busy for read cycles: 641364530
0banks busy for write cycles: 1316
1banks busy for read cycles: 379898
1banks busy for write cycles: 168592
2banks busy for read cycles: 65964
2banks busy for write cycles: 28364
3banks busy for read cycles: 21719
3banks busy for write cycles: 17267
4banks busy for read cycles: 11466
4banks busy for write cycles: 8222
5banks busy for read cycles: 3785
5banks busy for write cycles: 4398
6banks busy for read cycles: 1829
6banks busy for write cycles: 4001
7banks busy for read cycles: 180
7banks busy for write cycles: 2166
8banks busy for read cycles: 45
8banks busy for write cycles: 143

CPU 0 Branch Prediction Accuracy: 99.8875% MPKI: 0.19785 Average ROB Occupancy at Mispredict: 32.6386
Branch types
NOT_BRANCH: 164823590 82.4118%
BRANCH_DIRECT_JUMP: 2021885 1.01094%
BRANCH_INDIRECT: 11920984 5.96049%
BRANCH_CONDITIONAL: 12616384 6.30819%
BRANCH_DIRECT_CALL: 3633788 1.81689%
BRANCH_INDIRECT_CALL: 674712 0.337356%
BRANCH_RETURN: 4308553 2.15428%
BRANCH_OTHER: 0 0%

DRAM PAGES: 1048576
Allocated PAGES: 1920
