
*** ChampSim Multicore Out-of-Order Simulator ***

Warmup Instructions: 50000000
Simulation Instructions: 200000000
Number of CPUs: 1
LLC sets: 2048
LLC ways: 16
Off-chip DRAM Size: 4096 MB Channels: 1 Width: 64-bit Data Rate: 6400 MT/s
CPU 0 runs traces/spec2k17/client_007.champsimtrace.xz
.xz
BTB has LRU replacement policy
ITLB has LRU replacement policy
DTLB has LRU replacement policy
STLB has LRU replacement policy
L1I has LRU replacement policy
L1D has LRU replacement policy
Bingo PHT WAYS: 16 and PHT_SIZE: 16384
Initialize SRRIP state for L2C
Initialize DRRIP state for LLC
Heartbeat CPU 0 instructions: 10000002 cycles: 2984956 heartbeat IPC: 3.35013 cumulative IPC: 3.35013 (Simulation time: 0 hr 0 min 38 sec) 
Heartbeat CPU 0 instructions: 20000003 cycles: 5852099 heartbeat IPC: 3.48779 cumulative IPC: 3.41758 (Simulation time: 0 hr 1 min 16 sec) 
Heartbeat CPU 0 instructions: 30000002 cycles: 8885748 heartbeat IPC: 3.29636 cumulative IPC: 3.37619 (Simulation time: 0 hr 2 min 1 sec) 
Heartbeat CPU 0 instructions: 40000001 cycles: 12112758 heartbeat IPC: 3.09884 cumulative IPC: 3.3023 (Simulation time: 0 hr 2 min 47 sec) 
Heartbeat CPU 0 instructions: 50000003 cycles: 14946853 heartbeat IPC: 3.52846 cumulative IPC: 3.34519 (Simulation time: 0 hr 3 min 26 sec) 

Warmup complete CPU 0 instructions: 50000003 cycles: 14946853 (Simulation time: 0 hr 3 min 26 sec) 

Heartbeat CPU 0 instructions: 60000000 cycles: 32747058 heartbeat IPC: 0.561791 cumulative IPC: 0.561791 (Simulation time: 0 hr 4 min 18 sec) 
Heartbeat CPU 0 instructions: 70000002 cycles: 49555899 heartbeat IPC: 0.594925 cumulative IPC: 0.577884 (Simulation time: 0 hr 5 min 16 sec) 
Heartbeat CPU 0 instructions: 80000000 cycles: 61519588 heartbeat IPC: 0.835862 cumulative IPC: 0.644154 (Simulation time: 0 hr 6 min 0 sec) 
Heartbeat CPU 0 instructions: 90000002 cycles: 80435547 heartbeat IPC: 0.528654 cumulative IPC: 0.610792 (Simulation time: 0 hr 6 min 56 sec) 
Heartbeat CPU 0 instructions: 100000000 cycles: 103455504 heartbeat IPC: 0.434406 cumulative IPC: 0.564916 (Simulation time: 0 hr 7 min 51 sec) 
*** Reached end of trace for Core: 0 Repeating trace: traces/spec2k17/client_007.champsimtrace.xz
Heartbeat CPU 0 instructions: 110000000 cycles: 126178039 heartbeat IPC: 0.440092 cumulative IPC: 0.539417 (Simulation time: 0 hr 8 min 44 sec) 
Heartbeat CPU 0 instructions: 120000000 cycles: 145159571 heartbeat IPC: 0.526828 cumulative IPC: 0.537582 (Simulation time: 0 hr 9 min 35 sec) 
Heartbeat CPU 0 instructions: 130000001 cycles: 163239808 heartbeat IPC: 0.55309 cumulative IPC: 0.539473 (Simulation time: 0 hr 10 min 29 sec) 
Heartbeat CPU 0 instructions: 140000003 cycles: 180169752 heartbeat IPC: 0.59067 cumulative IPC: 0.544719 (Simulation time: 0 hr 11 min 32 sec) 
Heartbeat CPU 0 instructions: 150000001 cycles: 198091416 heartbeat IPC: 0.557984 cumulative IPC: 0.546017 (Simulation time: 0 hr 12 min 22 sec) 
Heartbeat CPU 0 instructions: 160000000 cycles: 216358548 heartbeat IPC: 0.547431 cumulative IPC: 0.546145 (Simulation time: 0 hr 13 min 12 sec) 
Heartbeat CPU 0 instructions: 170000000 cycles: 232488054 heartbeat IPC: 0.619982 cumulative IPC: 0.55162 (Simulation time: 0 hr 14 min 11 sec) 
Heartbeat CPU 0 instructions: 180000001 cycles: 244717801 heartbeat IPC: 0.817679 cumulative IPC: 0.565781 (Simulation time: 0 hr 14 min 55 sec) 
Heartbeat CPU 0 instructions: 190000002 cycles: 262741496 heartbeat IPC: 0.554825 cumulative IPC: 0.564984 (Simulation time: 0 hr 15 min 45 sec) 
Heartbeat CPU 0 instructions: 200000003 cycles: 285912483 heartbeat IPC: 0.431574 cumulative IPC: 0.553576 (Simulation time: 0 hr 16 min 38 sec) 
*** Reached end of trace for Core: 0 Repeating trace: traces/spec2k17/client_007.champsimtrace.xz
Heartbeat CPU 0 instructions: 210000000 cycles: 307753404 heartbeat IPC: 0.457856 cumulative IPC: 0.546436 (Simulation time: 0 hr 17 min 29 sec) 
Heartbeat CPU 0 instructions: 220000000 cycles: 327883264 heartbeat IPC: 0.496774 cumulative IPC: 0.543241 (Simulation time: 0 hr 18 min 18 sec) 
Heartbeat CPU 0 instructions: 230000002 cycles: 346199365 heartbeat IPC: 0.545968 cumulative IPC: 0.543392 (Simulation time: 0 hr 19 min 7 sec) 
Heartbeat CPU 0 instructions: 240000000 cycles: 362746934 heartbeat IPC: 0.604318 cumulative IPC: 0.546291 (Simulation time: 0 hr 20 min 6 sec) 
Heartbeat CPU 0 instructions: 250000000 cycles: 379946603 heartbeat IPC: 0.581407 cumulative IPC: 0.547946 (Simulation time: 0 hr 20 min 58 sec) 
Finished CPU 0 instructions: 200000001 cycles: 364999751 cumulative IPC: 0.547946 (Simulation time: 0 hr 20 min 58 sec) 

ChampSim completed all CPUs

Region of Interest Statistics

CPU 0 cumulative IPC: 0.547946 instructions: 200000001 cycles: 364999751
ITLB TOTAL     ACCESS:   33011719  HIT:   32473491  MISS:     538228  HIT %:    98.3696  MISS %:    1.63041   MPKI: 2.69114
ITLB LOAD TRANSLATION ACCESS:   33011719  HIT:   32473491  MISS:     538228  HIT %:    98.3696  MISS %:    1.63041   MPKI: 2.69114
ITLB PREFETCH  REQUESTED:          0  ISSUED:          0  USEFUL:          0  USELESS:          0
ITLB USEFUL LOAD PREFETCHES:          0 PREFETCH ISSUED TO LOWER LEVEL:          0  ACCURACY: -nan
ITLB TIMELY PREFETCHES:          0 LATE PREFETCHES: 0 DROPPED PREFETCHES: 0
ITLB PREFETCHES SAME FILL-ORIGIN LEVEL: 0 DIFFERENT FILL-ORIGIN LEVEL: 0
ITLB AVERAGE MISS LATENCY: 9.75851 cycles
ITLB RQ	ACCESS:   38430073	FORWARD:          0	MERGED:    5322218	TO_CACHE:   33107855

DTLB TOTAL     ACCESS:   47324241  HIT:   46138979  MISS:    1185262  HIT %:    97.4954  MISS %:    2.50456   MPKI: 5.92631
DTLB LOAD TRANSLATION ACCESS:   47324241  HIT:   46138979  MISS:    1185262  HIT %:    97.4954  MISS %:    2.50456   MPKI: 5.92631
DTLB PREFETCH  REQUESTED:          0  ISSUED:          0  USEFUL:          0  USELESS:          0
DTLB USEFUL LOAD PREFETCHES:          0 PREFETCH ISSUED TO LOWER LEVEL:          0  ACCURACY: -nan
DTLB TIMELY PREFETCHES:          0 LATE PREFETCHES: 0 DROPPED PREFETCHES: 0
DTLB PREFETCHES SAME FILL-ORIGIN LEVEL: 0 DIFFERENT FILL-ORIGIN LEVEL: 0
DTLB AVERAGE MISS LATENCY: 10.2258 cycles
DTLB RQ	ACCESS:   58162651	FORWARD:          0	MERGED:   10778563	TO_CACHE:   47384088

STLB TOTAL     ACCESS:    1723489  HIT:    1706134  MISS:      17355  HIT %:     98.993  MISS %:    1.00697   MPKI: 0.086775
STLB LOAD TRANSLATION ACCESS:    1723489  HIT:    1706134  MISS:      17355  HIT %:     98.993  MISS %:    1.00697   MPKI: 0.086775
STLB PREFETCH  REQUESTED:          0  ISSUED:          0  USEFUL:          0  USELESS:          0
STLB USEFUL LOAD PREFETCHES:          0 PREFETCH ISSUED TO LOWER LEVEL:          0  ACCURACY: -nan
STLB TIMELY PREFETCHES:          0 LATE PREFETCHES: 0 DROPPED PREFETCHES: 0
STLB PREFETCHES SAME FILL-ORIGIN LEVEL: 0 DIFFERENT FILL-ORIGIN LEVEL: 0
STLB AVERAGE MISS LATENCY: 105.829 cycles
STLB RQ	ACCESS:    1723489	FORWARD:          0	MERGED:          0	TO_CACHE:    1723489

STLB Hit, L1D data hit: 0
STLB Hit, L2C data hit: 0
STLB Hit, LLC data hit: 0
STLB Hit, LLC data miss: 0
STLB STLB hints to L2: 0
L1D TOTAL     ACCESS:   57302761  HIT:   54702238  MISS:    2600523  HIT %:    95.4618  MISS %:    4.53822   MPKI: 13.0026
L1D LOAD      ACCESS:   38878859  HIT:   36668035  MISS:    2210824  HIT %:    94.3136  MISS %:    5.68644   MPKI: 11.0541
L1D RFO       ACCESS:   18423902  HIT:   18034203  MISS:     389699  HIT %:    97.8848  MISS %:    2.11518   MPKI: 1.94849
L1D PREFETCH  REQUESTED:          0  ISSUED:          0  USEFUL:          0  USELESS:          0
L1D USEFUL LOAD PREFETCHES:          0 PREFETCH ISSUED TO LOWER LEVEL:          0  ACCURACY: -nan
L1D TIMELY PREFETCHES:          0 LATE PREFETCHES: 0 DROPPED PREFETCHES: 0
L1D PREFETCHES SAME FILL-ORIGIN LEVEL: 0 DIFFERENT FILL-ORIGIN LEVEL: 0
L1D AVERAGE MISS LATENCY: 39.2212 cycles
L1D RQ	ACCESS:   53738885	FORWARD:          0	MERGED:   14492927	TO_CACHE:   39032331
L1D WQ	ACCESS:   20037205	FORWARD:     213627	MERGED:     906885	TO_CACHE:   19130320

L1D UNIQUE REGIONS ACCESSED: 0
L1D REGIONS CONFLICTS: 0
L1D Cross Page Prefetch Requests: 0
L1D Same Page Prefetch Requests: 0
L1D ROI Sum of L1D PQ occupancy: 0
L1D PREFETCHES PUSHED FROM L2C: 0
L1I TOTAL     ACCESS:   37276024  HIT:   34052798  MISS:    3223226  HIT %:    91.3531  MISS %:    8.64691   MPKI: 16.1161
L1I LOAD      ACCESS:   37276024  HIT:   34052798  MISS:    3223226  HIT %:    91.3531  MISS %:    8.64691   MPKI: 16.1161
L1I PREFETCH  REQUESTED:          0  ISSUED:          0  USEFUL:          0  USELESS:          0
L1I USEFUL LOAD PREFETCHES:          0 PREFETCH ISSUED TO LOWER LEVEL:          0  ACCURACY: -nan
L1I TIMELY PREFETCHES:          0 LATE PREFETCHES: 0 DROPPED PREFETCHES: 0
L1I PREFETCHES SAME FILL-ORIGIN LEVEL: 0 DIFFERENT FILL-ORIGIN LEVEL: 0
L1I AVERAGE MISS LATENCY: 16.655 cycles
L1I RQ	ACCESS:   58665267	FORWARD:          0	MERGED:   20235194	TO_CACHE:   38430073

BTB TOTAL     ACCESS:   28220063  HIT:   25973493  MISS:    2246570  HIT %:    92.0391  MISS %:     7.9609   MPKI: 11.2328
BTB BRANCH_DIRECT_JUMP	ACCESS:    2927002  HIT:    2902357  MISS:      24645
BTB BRANCH_INDIRECT	ACCESS:    6543248  HIT:    5490545  MISS:    1052703
BTB BRANCH_CONDITIONAL	ACCESS:   13206143  HIT:   13158296  MISS:      47847
BTB BRANCH_DIRECT_CALL	ACCESS:    1693524  HIT:    1661218  MISS:      32306
BTB BRANCH_INDIRECT_CALL	ACCESS:    1043280  HIT:     784064  MISS:     259216
BTB BRANCH_RETURN	ACCESS:    2806866  HIT:    1977013  MISS:     829853
BTB BRANCH_OTHER ACCESS:          0  HIT:          0  MISS:          0

L2C TOTAL     ACCESS:    8201328  HIT:    7246513  MISS:     954815  HIT %:    88.3578  MISS %:    11.6422   MPKI: 4.77407
L2C LOAD      ACCESS:    5433619  HIT:    5127792  MISS:     305827  HIT %:    94.3716  MISS %:    5.62842   MPKI: 1.52913
L2C DATA LOAD MPKI: 1.22592
L2C INSTRUCTION LOAD MPKI: 0.303215
L2C RFO       ACCESS:     389695  HIT:     170393  MISS:     219302  HIT %:    43.7247  MISS %:    56.2753   MPKI: 1.09651
L2C PREFETCH  ACCESS:    1363026  HIT:     950936  MISS:     412090  HIT %:    69.7665  MISS %:    30.2335   MPKI: 2.06045
AGUS PREFETCH L1 MISS: 0
L2C DATA PREFETCH MPKI: 2.06045
L2C INSTRUCTION PREFETCH MPKI: 0
L2C WRITEBACK ACCESS:     996725  HIT:     986565  MISS:      10160  HIT %:    98.9807  MISS %:    1.01934   MPKI: 0.0508
L2C LOAD TRANSLATION ACCESS:      18263  HIT:      10827  MISS:       7436  HIT %:    59.2838  MISS %:    40.7162   MPKI: 0.03718
L2C PREFETCH  REQUESTED:    1373382  ISSUED:    1373382  USEFUL:     228928  USELESS:     182356
L2C USEFUL LOAD PREFETCHES:     228928 PREFETCH ISSUED TO LOWER LEVEL:     416228  ACCURACY: 55.0006
L2C TIMELY PREFETCHES:     228928 LATE PREFETCHES: 4138 DROPPED PREFETCHES: 0
L2C PREFETCHES SAME FILL-ORIGIN LEVEL: 416228 DIFFERENT FILL-ORIGIN LEVEL: 0
L2C AVERAGE MISS LATENCY: 127.52 cycles
L2C RQ	ACCESS:    5842011	FORWARD:          0	MERGED:          0	TO_CACHE:    5841577
L2C WQ	ACCESS:     996725	FORWARD:        437	MERGED:          0	TO_CACHE:     996725
L2C PQ	ACCESS:    1373382	FORWARD:          0	MERGED:          0	TO_CACHE:    1373379

L2C Instructions Evicting Data 48995
L2C Translations Evicting Data 6216
L2C Data Evicting Data 819098
L2C Instructions Evicting Instructions 10472
L2C Translations Evicting Instructions 1035
L2C Data Evicting Instructions 51240
L2C Instructions Evicting Translations 1176
L2C Translations Evicting Translations 185
L2C Data Evicting Translations 6238
L2C Dense regions hint from L2: 0
PSCL5 TOTAL     ACCESS:      17355  HIT:      17355  MISS:          0  HIT %:        100  MISS %:          0   MPKI: 0
PSCL5 LOAD TRANSLATION ACCESS:      17355  HIT:      17355  MISS:          0  HIT %:        100  MISS %:          0   MPKI: 0
PSCL5 PREFETCH  REQUESTED:          0  ISSUED:          0  USEFUL:          0  USELESS:          0
PSCL5 USEFUL LOAD PREFETCHES:          0 PREFETCH ISSUED TO LOWER LEVEL:          0  ACCURACY: -nan
PSCL5 TIMELY PREFETCHES:          0 LATE PREFETCHES: 0 DROPPED PREFETCHES: 0
PSCL5 PREFETCHES SAME FILL-ORIGIN LEVEL: 0 DIFFERENT FILL-ORIGIN LEVEL: 0

PSCL4 TOTAL     ACCESS:      16618  HIT:      16595  MISS:         23  HIT %:    99.8616  MISS %:   0.138404   MPKI: 0.000115
PSCL4 LOAD TRANSLATION ACCESS:      16618  HIT:      16595  MISS:         23  HIT %:    99.8616  MISS %:   0.138404   MPKI: 0.000115
PSCL4 PREFETCH  REQUESTED:          0  ISSUED:          0  USEFUL:          0  USELESS:          0
PSCL4 USEFUL LOAD PREFETCHES:          0 PREFETCH ISSUED TO LOWER LEVEL:          0  ACCURACY: -nan
PSCL4 TIMELY PREFETCHES:          0 LATE PREFETCHES: 0 DROPPED PREFETCHES: 0
PSCL4 PREFETCHES SAME FILL-ORIGIN LEVEL: 0 DIFFERENT FILL-ORIGIN LEVEL: 0

PSCL3 TOTAL     ACCESS:      16946  HIT:      16873  MISS:         73  HIT %:    99.5692  MISS %:    0.43078   MPKI: 0.000365
PSCL3 LOAD TRANSLATION ACCESS:      16946  HIT:      16873  MISS:         73  HIT %:    99.5692  MISS %:    0.43078   MPKI: 0.000365
PSCL3 PREFETCH  REQUESTED:          0  ISSUED:          0  USEFUL:          0  USELESS:          0
PSCL3 USEFUL LOAD PREFETCHES:          0 PREFETCH ISSUED TO LOWER LEVEL:          0  ACCURACY: -nan
PSCL3 TIMELY PREFETCHES:          0 LATE PREFETCHES: 0 DROPPED PREFETCHES: 0
PSCL3 PREFETCHES SAME FILL-ORIGIN LEVEL: 0 DIFFERENT FILL-ORIGIN LEVEL: 0

PSCL2 TOTAL     ACCESS:      17355  HIT:      16538  MISS:        817  HIT %:    95.2924  MISS %:    4.70758   MPKI: 0.004085
PSCL2 LOAD TRANSLATION ACCESS:      17355  HIT:      16538  MISS:        817  HIT %:    95.2924  MISS %:    4.70758   MPKI: 0.004085
PSCL2 PREFETCH  REQUESTED:          0  ISSUED:          0  USEFUL:          0  USELESS:          0
PSCL2 USEFUL LOAD PREFETCHES:          0 PREFETCH ISSUED TO LOWER LEVEL:          0  ACCURACY: -nan
PSCL2 TIMELY PREFETCHES:          0 LATE PREFETCHES: 0 DROPPED PREFETCHES: 0
PSCL2 PREFETCHES SAME FILL-ORIGIN LEVEL: 0 DIFFERENT FILL-ORIGIN LEVEL: 0

LLC TOTAL     ACCESS:    1271401  HIT:     702005  MISS:     569396  HIT %:    55.2151  MISS %:    44.7849   MPKI: 2.84698
LLC LOAD      ACCESS:     301888  HIT:     152641  MISS:     149247  HIT %:    50.5621  MISS %:    49.4379   MPKI: 0.746235
LLC RFO       ACCESS:     219103  HIT:      23295  MISS:     195808  HIT %:     10.632  MISS %:     89.368   MPKI: 0.97904
LLC PREFETCH  ACCESS:     416227  HIT:     211573  MISS:     204654  HIT %:    50.8312  MISS %:    49.1688   MPKI: 1.02327
AGUS PREFETCH L1 MISS: 0
LLC WRITEBACK ACCESS:     326747  HIT:     312626  MISS:      14121  HIT %:    95.6783  MISS %:    4.32169   MPKI: 0.070605
LLC LOAD TRANSLATION ACCESS:       7436  HIT:       1870  MISS:       5566  HIT %:    25.1479  MISS %:    74.8521   MPKI: 0.02783
LLC PREFETCH  REQUESTED:          0  ISSUED:          0  USEFUL:      25486  USELESS:     177346
LLC USEFUL LOAD PREFETCHES:      25486 PREFETCH ISSUED TO LOWER LEVEL:     204654  ACCURACY: 12.4532
LLC TIMELY PREFETCHES:      25486 LATE PREFETCHES: 0 DROPPED PREFETCHES: 0
LLC PREFETCHES SAME FILL-ORIGIN LEVEL: 0 DIFFERENT FILL-ORIGIN LEVEL: 0
LLC AVERAGE MISS LATENCY: 164.46 cycles
LLC RQ	ACCESS:     528427	FORWARD:          0	MERGED:          0	TO_CACHE:     528427
LLC WQ	ACCESS:     326747	FORWARD:          1	MERGED:          0	TO_CACHE:     326747
LLC PQ	ACCESS:     416228	FORWARD:          0	MERGED:          0	TO_CACHE:     416227

LLC Dense regions hint to LLC: 0

RAW hits: 2637088
Loads Generated: 56375973
Loads sent to L1D: 53738885
Stores Generated: 20037193
Stores sent to L1D: 20037205
Major fault: 0 Minor fault: 4494
Allocated PAGES: 4494
[Bingo] PHT Access: 365193
[Bingo] PHT Hit PC+Addr: 224479
[Bingo] PHT Hit PC+Offs: 56357
[Bingo] PHT Miss: 84357
[Bingo] Prefetch PC+Addr: 0
[Bingo] Prefetch PC+Offs: 0
[Bingo] Useful PC+Addr: 0
[Bingo] Useful PC+Offs: 0
[Bingo] Useless PC+Addr: 0
[Bingo] Useless PC+Offs: 0
[Bingo] L1 Prefetch per Region: 0
[Bingo] L2 Prefetch per Region: 5.95197
[Bingo] L3 Prefetch per Region: 0
[Bingo] No Prefetch per Region: 26.048
[Bingo] Number of Voters Mean: 3.97841
[Bingo] Number of Voters SD: 4.56071
PHT read accesses: 3973608
PHT write accesses: 261778
AT read accesses: 1842171
AT write accesses: 2057200
FT read accesses: 898124
FT write accesses: 365193
PS read accesses: 586407
PS write accesses: 280836
PHT tag read accesses: 9090201
PHT tag write accesses: 486257
AT tag read accesses: 62836634
AT tag write accesses: 2103949
FT tag read accesses: 39754626
FT tag write accesses: 951761
PS tag read accesses: 45495900
PS tag write accesses: 865487

DRAM Statistics
 CHANNEL 0
 RQ ROW_BUFFER_HIT:     175300  ROW_BUFFER_MISS:     379957
 DBUS_CONGESTED:        440
 WQ ROW_BUFFER_HIT:      45248  ROW_BUFFER_MISS:     211648  FULL:          0

 AVG_CONGESTED_CYCLE: 4
 All warmup complete: 2
Channel 0 Bank busy for read cycles: 0
Channel 0 Bank busy for write cycles: 0
Channel 0
Rank 0
0banks busy for read cycles: 308451101
0banks busy for write cycles: 84296
1banks busy for read cycles: 23604336
1banks busy for write cycles: 11328876
2banks busy for read cycles: 5343673
2banks busy for write cycles: 3451781
3banks busy for read cycles: 1812784
3banks busy for write cycles: 1832998
4banks busy for read cycles: 1054194
4banks busy for write cycles: 1177320
5banks busy for read cycles: 946023
5banks busy for write cycles: 864551
6banks busy for read cycles: 602451
6banks busy for write cycles: 679838
7banks busy for read cycles: 679553
7banks busy for write cycles: 644865
8banks busy for read cycles: 1103244
8banks busy for write cycles: 1337868

CPU 0 Branch Prediction Accuracy: 98.8408% MPKI: 2.00119 Average ROB Occupancy at Mispredict: 27.9552
Branch types
NOT_BRANCH: 165473054 82.7365%
BRANCH_DIRECT_JUMP: 2927002 1.4635%
BRANCH_INDIRECT: 6543248 3.27162%
BRANCH_CONDITIONAL: 19512693 9.75635%
BRANCH_DIRECT_CALL: 1693524 0.846762%
BRANCH_INDIRECT_CALL: 1043280 0.52164%
BRANCH_RETURN: 2806866 1.40343%
BRANCH_OTHER: 0 0%

DRAM PAGES: 1048576
Allocated PAGES: 4494
