
*** ChampSim Multicore Out-of-Order Simulator ***

Warmup Instructions: 50000000
Simulation Instructions: 200000000
Number of CPUs: 1
LLC sets: 2048
LLC ways: 16
Off-chip DRAM Size: 4096 MB Channels: 1 Width: 64-bit Data Rate: 6400 MT/s
CPU 0 runs traces/spec2k17/server_009.champsimtrace.xz
.xz
BTB has LRU replacement policy
ITLB has LRU replacement policy
DTLB has LRU replacement policy
STLB has LRU replacement policy
L1I has LRU replacement policy
L1D has LRU replacement policy
Bingo PHT WAYS: 16 and PHT_SIZE: 16384
Initialize SRRIP state for L2C
Initialize DRRIP state for LLC
Heartbeat CPU 0 instructions: 10000003 cycles: 2779419 heartbeat IPC: 3.59788 cumulative IPC: 3.59788 (Simulation time: 0 hr 0 min 36 sec) 
Heartbeat CPU 0 instructions: 20000001 cycles: 5554405 heartbeat IPC: 3.60362 cumulative IPC: 3.60075 (Simulation time: 0 hr 1 min 13 sec) 
Heartbeat CPU 0 instructions: 30000002 cycles: 8329963 heartbeat IPC: 3.60288 cumulative IPC: 3.60146 (Simulation time: 0 hr 1 min 50 sec) 
Heartbeat CPU 0 instructions: 40000003 cycles: 11109889 heartbeat IPC: 3.59722 cumulative IPC: 3.6004 (Simulation time: 0 hr 2 min 23 sec) 
Heartbeat CPU 0 instructions: 50000003 cycles: 13891701 heartbeat IPC: 3.59478 cumulative IPC: 3.59927 (Simulation time: 0 hr 2 min 59 sec) 

Warmup complete CPU 0 instructions: 50000003 cycles: 13891701 (Simulation time: 0 hr 2 min 59 sec) 

Heartbeat CPU 0 instructions: 60000000 cycles: 42176687 heartbeat IPC: 0.353544 cumulative IPC: 0.353544 (Simulation time: 0 hr 3 min 59 sec) 
Heartbeat CPU 0 instructions: 70000001 cycles: 79123771 heartbeat IPC: 0.270657 cumulative IPC: 0.306598 (Simulation time: 0 hr 5 min 11 sec) 
Heartbeat CPU 0 instructions: 80000001 cycles: 102807853 heartbeat IPC: 0.422225 cumulative IPC: 0.337397 (Simulation time: 0 hr 6 min 13 sec) 
Heartbeat CPU 0 instructions: 90000002 cycles: 125944702 heartbeat IPC: 0.432211 cumulative IPC: 0.356974 (Simulation time: 0 hr 7 min 6 sec) 
Heartbeat CPU 0 instructions: 100000001 cycles: 149301447 heartbeat IPC: 0.428142 cumulative IPC: 0.36925 (Simulation time: 0 hr 7 min 57 sec) 
*** Reached end of trace for Core: 0 Repeating trace: traces/spec2k17/server_009.champsimtrace.xz
Heartbeat CPU 0 instructions: 110000000 cycles: 172157307 heartbeat IPC: 0.437524 cumulative IPC: 0.37911 (Simulation time: 0 hr 8 min 49 sec) 
Heartbeat CPU 0 instructions: 120000000 cycles: 194695582 heartbeat IPC: 0.44369 cumulative IPC: 0.38716 (Simulation time: 0 hr 9 min 36 sec) 
Heartbeat CPU 0 instructions: 130000001 cycles: 218292186 heartbeat IPC: 0.42379 cumulative IPC: 0.391389 (Simulation time: 0 hr 10 min 25 sec) 
Heartbeat CPU 0 instructions: 140000001 cycles: 241898242 heartbeat IPC: 0.42362 cumulative IPC: 0.394726 (Simulation time: 0 hr 11 min 17 sec) 
Heartbeat CPU 0 instructions: 150000001 cycles: 265064404 heartbeat IPC: 0.431664 cumulative IPC: 0.398132 (Simulation time: 0 hr 12 min 6 sec) 
Heartbeat CPU 0 instructions: 160000002 cycles: 288805751 heartbeat IPC: 0.421206 cumulative IPC: 0.400125 (Simulation time: 0 hr 12 min 57 sec) 
Heartbeat CPU 0 instructions: 170000001 cycles: 327530154 heartbeat IPC: 0.258235 cumulative IPC: 0.382606 (Simulation time: 0 hr 14 min 13 sec) 
Heartbeat CPU 0 instructions: 180000001 cycles: 354081785 heartbeat IPC: 0.376625 cumulative IPC: 0.382139 (Simulation time: 0 hr 15 min 10 sec) 
Heartbeat CPU 0 instructions: 190000000 cycles: 377115357 heartbeat IPC: 0.434149 cumulative IPC: 0.385437 (Simulation time: 0 hr 16 min 0 sec) 
Heartbeat CPU 0 instructions: 200000000 cycles: 400632337 heartbeat IPC: 0.425225 cumulative IPC: 0.387857 (Simulation time: 0 hr 16 min 52 sec) 
*** Reached end of trace for Core: 0 Repeating trace: traces/spec2k17/server_009.champsimtrace.xz
Heartbeat CPU 0 instructions: 210000003 cycles: 423336430 heartbeat IPC: 0.440449 cumulative IPC: 0.390773 (Simulation time: 0 hr 17 min 42 sec) 
Heartbeat CPU 0 instructions: 220000000 cycles: 446094985 heartbeat IPC: 0.439395 cumulative IPC: 0.393333 (Simulation time: 0 hr 18 min 35 sec) 
Heartbeat CPU 0 instructions: 230000000 cycles: 469575633 heartbeat IPC: 0.425883 cumulative IPC: 0.395011 (Simulation time: 0 hr 19 min 28 sec) 
Heartbeat CPU 0 instructions: 240000001 cycles: 492940311 heartbeat IPC: 0.427997 cumulative IPC: 0.396619 (Simulation time: 0 hr 20 min 23 sec) 
Heartbeat CPU 0 instructions: 250000000 cycles: 516116150 heartbeat IPC: 0.431484 cumulative IPC: 0.398228 (Simulation time: 0 hr 21 min 16 sec) 
Finished CPU 0 instructions: 200000001 cycles: 502224451 cumulative IPC: 0.398228 (Simulation time: 0 hr 21 min 16 sec) 

ChampSim completed all CPUs

Region of Interest Statistics

CPU 0 cumulative IPC: 0.398228 instructions: 200000001 cycles: 502224451
ITLB TOTAL     ACCESS:   33734711  HIT:   33022389  MISS:     712322  HIT %:    97.8885  MISS %:    2.11154   MPKI: 3.56161
ITLB LOAD TRANSLATION ACCESS:   33734711  HIT:   33022389  MISS:     712322  HIT %:    97.8885  MISS %:    2.11154   MPKI: 3.56161
ITLB PREFETCH  REQUESTED:          0  ISSUED:          0  USEFUL:          0  USELESS:          0
ITLB USEFUL LOAD PREFETCHES:          0 PREFETCH ISSUED TO LOWER LEVEL:          0  ACCURACY: -nan
ITLB TIMELY PREFETCHES:          0 LATE PREFETCHES: 0 DROPPED PREFETCHES: 0
ITLB PREFETCHES SAME FILL-ORIGIN LEVEL: 0 DIFFERENT FILL-ORIGIN LEVEL: 0
ITLB AVERAGE MISS LATENCY: 15.735 cycles
ITLB RQ	ACCESS:   40244498	FORWARD:          0	MERGED:    6339558	TO_CACHE:   33904940

DTLB TOTAL     ACCESS:   39954722  HIT:   35245909  MISS:    4708813  HIT %:    88.2146  MISS %:    11.7854   MPKI: 23.5441
DTLB LOAD TRANSLATION ACCESS:   39954722  HIT:   35245909  MISS:    4708813  HIT %:    88.2146  MISS %:    11.7854   MPKI: 23.5441
DTLB PREFETCH  REQUESTED:          0  ISSUED:          0  USEFUL:          0  USELESS:          0
DTLB USEFUL LOAD PREFETCHES:          0 PREFETCH ISSUED TO LOWER LEVEL:          0  ACCURACY: -nan
DTLB TIMELY PREFETCHES:          0 LATE PREFETCHES: 0 DROPPED PREFETCHES: 0
DTLB PREFETCHES SAME FILL-ORIGIN LEVEL: 0 DIFFERENT FILL-ORIGIN LEVEL: 0
DTLB AVERAGE MISS LATENCY: 11.5143 cycles
DTLB RQ	ACCESS:   51888584	FORWARD:          0	MERGED:   11766144	TO_CACHE:   40122440

STLB TOTAL     ACCESS:    5421135  HIT:    5010868  MISS:     410267  HIT %:    92.4321  MISS %:    7.56792   MPKI: 2.05133
STLB LOAD TRANSLATION ACCESS:    5421135  HIT:    5010868  MISS:     410267  HIT %:    92.4321  MISS %:    7.56792   MPKI: 2.05133
STLB PREFETCH  REQUESTED:          0  ISSUED:          0  USEFUL:          0  USELESS:          0
STLB USEFUL LOAD PREFETCHES:          0 PREFETCH ISSUED TO LOWER LEVEL:          0  ACCURACY: -nan
STLB TIMELY PREFETCHES:          0 LATE PREFETCHES: 0 DROPPED PREFETCHES: 0
STLB PREFETCHES SAME FILL-ORIGIN LEVEL: 0 DIFFERENT FILL-ORIGIN LEVEL: 0
STLB AVERAGE MISS LATENCY: 40.3629 cycles
STLB RQ	ACCESS:    5421135	FORWARD:          0	MERGED:          0	TO_CACHE:    5421135

STLB Hit, L1D data hit: 0
STLB Hit, L2C data hit: 0
STLB Hit, LLC data hit: 0
STLB Hit, LLC data miss: 0
STLB STLB hints to L2: 0
L1D TOTAL     ACCESS:   51428975  HIT:   45632372  MISS:    5796603  HIT %:    88.7289  MISS %:    11.2711   MPKI: 28.983
L1D LOAD      ACCESS:   32543878  HIT:   27108734  MISS:    5435144  HIT %:     83.299  MISS %:     16.701   MPKI: 27.1757
L1D RFO       ACCESS:   18885097  HIT:   18523638  MISS:     361459  HIT %:     98.086  MISS %:    1.91399   MPKI: 1.80729
L1D PREFETCH  REQUESTED:          0  ISSUED:          0  USEFUL:          0  USELESS:          0
L1D USEFUL LOAD PREFETCHES:          0 PREFETCH ISSUED TO LOWER LEVEL:          0  ACCURACY: -nan
L1D TIMELY PREFETCHES:          0 LATE PREFETCHES: 0 DROPPED PREFETCHES: 0
L1D PREFETCHES SAME FILL-ORIGIN LEVEL: 0 DIFFERENT FILL-ORIGIN LEVEL: 0
L1D AVERAGE MISS LATENCY: 21.2084 cycles
L1D RQ	ACCESS:   46345445	FORWARD:          0	MERGED:   13522030	TO_CACHE:   32620401
L1D WQ	ACCESS:   19535803	FORWARD:     203014	MERGED:     267620	TO_CACHE:   19268183

L1D UNIQUE REGIONS ACCESSED: 0
L1D REGIONS CONFLICTS: 0
L1D Cross Page Prefetch Requests: 0
L1D Same Page Prefetch Requests: 0
L1D ROI Sum of L1D PQ occupancy: 0
L1D PREFETCHES PUSHED FROM L2C: 0
L1I TOTAL     ACCESS:   38791542  HIT:   34304326  MISS:    4487216  HIT %:    88.4325  MISS %:    11.5675   MPKI: 22.4361
L1I LOAD      ACCESS:   38791542  HIT:   34304326  MISS:    4487216  HIT %:    88.4325  MISS %:    11.5675   MPKI: 22.4361
L1I PREFETCH  REQUESTED:          0  ISSUED:          0  USEFUL:          0  USELESS:          0
L1I USEFUL LOAD PREFETCHES:          0 PREFETCH ISSUED TO LOWER LEVEL:          0  ACCURACY: -nan
L1I TIMELY PREFETCHES:          0 LATE PREFETCHES: 0 DROPPED PREFETCHES: 0
L1I PREFETCHES SAME FILL-ORIGIN LEVEL: 0 DIFFERENT FILL-ORIGIN LEVEL: 0
L1I AVERAGE MISS LATENCY: 28.6464 cycles
L1I RQ	ACCESS:   60136465	FORWARD:          0	MERGED:   19891967	TO_CACHE:   40244498

BTB TOTAL     ACCESS:   26457735  HIT:   21644987  MISS:    4812748  HIT %:    81.8097  MISS %:    18.1903   MPKI: 24.0637
BTB BRANCH_DIRECT_JUMP	ACCESS:    1781803  HIT:    1519806  MISS:     261997
BTB BRANCH_INDIRECT	ACCESS:   13089428  HIT:   10736402  MISS:    2353026
BTB BRANCH_CONDITIONAL	ACCESS:    4687165  HIT:    4274227  MISS:     412938
BTB BRANCH_DIRECT_CALL	ACCESS:    2727145  HIT:    2216757  MISS:     510388
BTB BRANCH_INDIRECT_CALL	ACCESS:     716294  HIT:     661956  MISS:      54338
BTB BRANCH_RETURN	ACCESS:    3455900  HIT:    2235839  MISS:    1220061
BTB BRANCH_OTHER ACCESS:          0  HIT:          0  MISS:          0

L2C TOTAL     ACCESS:   13013702  HIT:    9415086  MISS:    3598616  HIT %:    72.3475  MISS %:    27.6525   MPKI: 17.9931
L2C LOAD      ACCESS:    9922241  HIT:    7308011  MISS:    2614230  HIT %:    73.6528  MISS %:    26.3472   MPKI: 13.0711
L2C DATA LOAD MPKI: 2.53235
L2C INSTRUCTION LOAD MPKI: 10.5388
L2C RFO       ACCESS:     361459  HIT:     204869  MISS:     156590  HIT %:    56.6784  MISS %:    43.3216   MPKI: 0.78295
L2C PREFETCH  ACCESS:    1281816  HIT:     692016  MISS:     589800  HIT %:    53.9872  MISS %:    46.0128   MPKI: 2.949
AGUS PREFETCH L1 MISS: 0
L2C DATA PREFETCH MPKI: 2.949
L2C INSTRUCTION PREFETCH MPKI: 0
L2C WRITEBACK ACCESS:     928711  HIT:     891968  MISS:      36743  HIT %:    96.0437  MISS %:    3.95634   MPKI: 0.183715
L2C LOAD TRANSLATION ACCESS:     519475  HIT:     318222  MISS:     201253  HIT %:    61.2584  MISS %:    38.7416   MPKI: 1.00626
L2C PREFETCH  REQUESTED:    1332025  ISSUED:    1332025  USEFUL:     440215  USELESS:     149874
L2C USEFUL LOAD PREFETCHES:     440215 PREFETCH ISSUED TO LOWER LEVEL:     603278  ACCURACY: 72.9705
L2C TIMELY PREFETCHES:     440215 LATE PREFETCHES: 13478 DROPPED PREFETCHES: 0
L2C PREFETCHES SAME FILL-ORIGIN LEVEL: 603278 DIFFERENT FILL-ORIGIN LEVEL: 0
L2C AVERAGE MISS LATENCY: 42.1252 cycles
L2C RQ	ACCESS:   10803294	FORWARD:          0	MERGED:          0	TO_CACHE:   10803175
L2C WQ	ACCESS:     928711	FORWARD:        119	MERGED:          0	TO_CACHE:     928711
L2C PQ	ACCESS:    1332025	FORWARD:          0	MERGED:          0	TO_CACHE:    1332025

L2C Instructions Evicting Data 745667
L2C Translations Evicting Data 72658
L2C Data Evicting Data 456725
L2C Instructions Evicting Instructions 1244055
L2C Translations Evicting Instructions 119470
L2C Data Evicting Instructions 723965
L2C Instructions Evicting Translations 118037
L2C Translations Evicting Translations 9125
L2C Data Evicting Translations 72171
L2C Dense regions hint from L2: 0
PSCL5 TOTAL     ACCESS:     410267  HIT:     410267  MISS:          0  HIT %:        100  MISS %:          0   MPKI: 0
PSCL5 LOAD TRANSLATION ACCESS:     410267  HIT:     410267  MISS:          0  HIT %:        100  MISS %:          0   MPKI: 0
PSCL5 PREFETCH  REQUESTED:          0  ISSUED:          0  USEFUL:          0  USELESS:          0
PSCL5 USEFUL LOAD PREFETCHES:          0 PREFETCH ISSUED TO LOWER LEVEL:          0  ACCURACY: -nan
PSCL5 TIMELY PREFETCHES:          0 LATE PREFETCHES: 0 DROPPED PREFETCHES: 0
PSCL5 PREFETCHES SAME FILL-ORIGIN LEVEL: 0 DIFFERENT FILL-ORIGIN LEVEL: 0

PSCL4 TOTAL     ACCESS:     381976  HIT:     380752  MISS:       1224  HIT %:    99.6796  MISS %:   0.320439   MPKI: 0.00612
PSCL4 LOAD TRANSLATION ACCESS:     381976  HIT:     380752  MISS:       1224  HIT %:    99.6796  MISS %:   0.320439   MPKI: 0.00612
PSCL4 PREFETCH  REQUESTED:          0  ISSUED:          0  USEFUL:          0  USELESS:          0
PSCL4 USEFUL LOAD PREFETCHES:          0 PREFETCH ISSUED TO LOWER LEVEL:          0  ACCURACY: -nan
PSCL4 TIMELY PREFETCHES:          0 LATE PREFETCHES: 0 DROPPED PREFETCHES: 0
PSCL4 PREFETCHES SAME FILL-ORIGIN LEVEL: 0 DIFFERENT FILL-ORIGIN LEVEL: 0

PSCL3 TOTAL     ACCESS:     406988  HIT:     403657  MISS:       3331  HIT %:    99.1815  MISS %:   0.818452   MPKI: 0.016655
PSCL3 LOAD TRANSLATION ACCESS:     406988  HIT:     403657  MISS:       3331  HIT %:    99.1815  MISS %:   0.818452   MPKI: 0.016655
PSCL3 PREFETCH  REQUESTED:          0  ISSUED:          0  USEFUL:          0  USELESS:          0
PSCL3 USEFUL LOAD PREFETCHES:          0 PREFETCH ISSUED TO LOWER LEVEL:          0  ACCURACY: -nan
PSCL3 TIMELY PREFETCHES:          0 LATE PREFETCHES: 0 DROPPED PREFETCHES: 0
PSCL3 PREFETCHES SAME FILL-ORIGIN LEVEL: 0 DIFFERENT FILL-ORIGIN LEVEL: 0

PSCL2 TOTAL     ACCESS:     410267  HIT:     305538  MISS:     104729  HIT %:     74.473  MISS %:     25.527   MPKI: 0.523645
PSCL2 LOAD TRANSLATION ACCESS:     410267  HIT:     305538  MISS:     104729  HIT %:     74.473  MISS %:     25.527   MPKI: 0.523645
PSCL2 PREFETCH  REQUESTED:          0  ISSUED:          0  USEFUL:          0  USELESS:          0
PSCL2 USEFUL LOAD PREFETCHES:          0 PREFETCH ISSUED TO LOWER LEVEL:          0  ACCURACY: -nan
PSCL2 TIMELY PREFETCHES:          0 LATE PREFETCHES: 0 DROPPED PREFETCHES: 0
PSCL2 PREFETCHES SAME FILL-ORIGIN LEVEL: 0 DIFFERENT FILL-ORIGIN LEVEL: 0

LLC TOTAL     ACCESS:    3999983  HIT:    3739482  MISS:     260501  HIT %:    93.4874  MISS %:    6.51255   MPKI: 1.3025
LLC LOAD      ACCESS:    2600825  HIT:    2532804  MISS:      68021  HIT %:    97.3846  MISS %:    2.61536   MPKI: 0.340105
LLC RFO       ACCESS:     156516  HIT:     120759  MISS:      35757  HIT %:    77.1544  MISS %:    22.8456   MPKI: 0.178785
LLC PREFETCH  ACCESS:     603276  HIT:     453017  MISS:     150259  HIT %:    75.0928  MISS %:    24.9072   MPKI: 0.751295
AGUS PREFETCH L1 MISS: 0
LLC WRITEBACK ACCESS:     438113  HIT:     435980  MISS:       2133  HIT %:    99.5131  MISS %:   0.486861   MPKI: 0.010665
LLC LOAD TRANSLATION ACCESS:     201253  HIT:     196922  MISS:       4331  HIT %:     97.848  MISS %:    2.15202   MPKI: 0.021655
LLC PREFETCH  REQUESTED:          0  ISSUED:          0  USEFUL:       8061  USELESS:     139658
LLC USEFUL LOAD PREFETCHES:       8061 PREFETCH ISSUED TO LOWER LEVEL:     150259  ACCURACY: 5.36474
LLC TIMELY PREFETCHES:       8061 LATE PREFETCHES: 0 DROPPED PREFETCHES: 0
LLC PREFETCHES SAME FILL-ORIGIN LEVEL: 0 DIFFERENT FILL-ORIGIN LEVEL: 0
LLC AVERAGE MISS LATENCY: 173.174 cycles
LLC RQ	ACCESS:    2958595	FORWARD:          0	MERGED:          0	TO_CACHE:    2958594
LLC WQ	ACCESS:     438113	FORWARD:          3	MERGED:          0	TO_CACHE:     438113
LLC PQ	ACCESS:     603278	FORWARD:          0	MERGED:          0	TO_CACHE:     603276

LLC Dense regions hint to LLC: 0

RAW hits: 2421695
Loads Generated: 48767141
Loads sent to L1D: 46345445
Stores Generated: 19535794
Stores sent to L1D: 19535803
Major fault: 0 Minor fault: 6724
Allocated PAGES: 6724
[Bingo] PHT Access: 744276
[Bingo] PHT Hit PC+Addr: 372732
[Bingo] PHT Hit PC+Offs: 43245
[Bingo] PHT Miss: 328299
[Bingo] Prefetch PC+Addr: 0
[Bingo] Prefetch PC+Offs: 0
[Bingo] Useful PC+Addr: 0
[Bingo] Useful PC+Offs: 0
[Bingo] Useless PC+Addr: 0
[Bingo] Useless PC+Offs: 0
[Bingo] L1 Prefetch per Region: 0
[Bingo] L2 Prefetch per Region: 4.2177
[Bingo] L3 Prefetch per Region: 0
[Bingo] No Prefetch per Region: 27.7823
[Bingo] Number of Voters Mean: 2.94628
[Bingo] Number of Voters SD: 3.80194
PHT read accesses: 5961155
PHT write accesses: 296143
AT read accesses: 4668751
AT write accesses: 4884965
FT read accesses: 1113923
FT write accesses: 744276
PS read accesses: 847639
PS write accesses: 415977
PHT tag read accesses: 12046589
PHT tag write accesses: 668875
AT tag read accesses: 158150819
AT tag write accesses: 4964893
FT tag read accesses: 102020840
FT tag write accesses: 1460131
PS tag read accesses: 101591013
PS tag write accesses: 1262803

DRAM Statistics
 CHANNEL 0
 RQ ROW_BUFFER_HIT:      88628  ROW_BUFFER_MISS:     169736
 DBUS_CONGESTED:         61
 WQ ROW_BUFFER_HIT:      19742  ROW_BUFFER_MISS:     168928  FULL:          0

 AVG_CONGESTED_CYCLE: 4
 All warmup complete: 2
Channel 0 Bank busy for read cycles: 0
Channel 0 Bank busy for write cycles: 0
Channel 0
Rank 0
0banks busy for read cycles: 477241695
0banks busy for write cycles: 48024
1banks busy for read cycles: 8983492
1banks busy for write cycles: 5686496
2banks busy for read cycles: 1650967
2banks busy for write cycles: 1695840
3banks busy for read cycles: 630275
3banks busy for write cycles: 867416
4banks busy for read cycles: 370309
4banks busy for write cycles: 614379
5banks busy for read cycles: 264646
5banks busy for write cycles: 502647
6banks busy for read cycles: 263510
6banks busy for write cycles: 464133
7banks busy for read cycles: 374956
7banks busy for write cycles: 543922
8banks busy for read cycles: 1091986
8banks busy for write cycles: 929759

CPU 0 Branch Prediction Accuracy: 99.7405% MPKI: 0.500965 Average ROB Occupancy at Mispredict: 23.4829
Branch types
NOT_BRANCH: 161395749 80.6979%
BRANCH_DIRECT_JUMP: 1781803 0.890901%
BRANCH_INDIRECT: 13089428 6.54471%
BRANCH_CONDITIONAL: 16833331 8.41667%
BRANCH_DIRECT_CALL: 2727145 1.36357%
BRANCH_INDIRECT_CALL: 716294 0.358147%
BRANCH_RETURN: 3455900 1.72795%
BRANCH_OTHER: 0 0%

DRAM PAGES: 1048576
Allocated PAGES: 6724
