
*** ChampSim Multicore Out-of-Order Simulator ***

Warmup Instructions: 50000000
Simulation Instructions: 200000000
Number of CPUs: 1
LLC sets: 2048
LLC ways: 16
Off-chip DRAM Size: 4096 MB Channels: 1 Width: 64-bit Data Rate: 6400 MT/s
CPU 0 runs traces/spec2k17/server_027.champsimtrace.xz
.xz
BTB has LRU replacement policy
ITLB has LRU replacement policy
DTLB has LRU replacement policy
STLB has LRU replacement policy
L1I has LRU replacement policy
L1D has LRU replacement policy
Bingo PHT WAYS: 16 and PHT_SIZE: 16384
Initialize SRRIP state for L2C
Initialize DRRIP state for LLC
Heartbeat CPU 0 instructions: 10000000 cycles: 2819668 heartbeat IPC: 3.54652 cumulative IPC: 3.54652 (Simulation time: 0 hr 0 min 36 sec) 
Heartbeat CPU 0 instructions: 20000003 cycles: 5637377 heartbeat IPC: 3.54898 cumulative IPC: 3.54775 (Simulation time: 0 hr 1 min 14 sec) 
Heartbeat CPU 0 instructions: 30000001 cycles: 8451214 heartbeat IPC: 3.55387 cumulative IPC: 3.54979 (Simulation time: 0 hr 1 min 50 sec) 
Heartbeat CPU 0 instructions: 40000002 cycles: 11265707 heartbeat IPC: 3.55304 cumulative IPC: 3.5506 (Simulation time: 0 hr 2 min 28 sec) 
Heartbeat CPU 0 instructions: 50000002 cycles: 14080045 heartbeat IPC: 3.55323 cumulative IPC: 3.55113 (Simulation time: 0 hr 3 min 3 sec) 

Warmup complete CPU 0 instructions: 50000002 cycles: 14080045 (Simulation time: 0 hr 3 min 3 sec) 

Heartbeat CPU 0 instructions: 60000001 cycles: 46141577 heartbeat IPC: 0.3119 cumulative IPC: 0.3119 (Simulation time: 0 hr 3 min 56 sec) 
Heartbeat CPU 0 instructions: 70000000 cycles: 78009262 heartbeat IPC: 0.313797 cumulative IPC: 0.312846 (Simulation time: 0 hr 4 min 52 sec) 
Heartbeat CPU 0 instructions: 80000001 cycles: 109884144 heartbeat IPC: 0.313727 cumulative IPC: 0.313139 (Simulation time: 0 hr 6 min 3 sec) 
Heartbeat CPU 0 instructions: 90000001 cycles: 142080819 heartbeat IPC: 0.310591 cumulative IPC: 0.312498 (Simulation time: 0 hr 6 min 57 sec) 
Heartbeat CPU 0 instructions: 100000000 cycles: 174013776 heartbeat IPC: 0.313156 cumulative IPC: 0.312629 (Simulation time: 0 hr 7 min 51 sec) 
*** Reached end of trace for Core: 0 Repeating trace: traces/spec2k17/server_027.champsimtrace.xz
Heartbeat CPU 0 instructions: 110000000 cycles: 205894676 heartbeat IPC: 0.313667 cumulative IPC: 0.312802 (Simulation time: 0 hr 8 min 44 sec) 
Heartbeat CPU 0 instructions: 120000001 cycles: 237719017 heartbeat IPC: 0.314225 cumulative IPC: 0.313004 (Simulation time: 0 hr 9 min 41 sec) 
Heartbeat CPU 0 instructions: 130000000 cycles: 269765090 heartbeat IPC: 0.312051 cumulative IPC: 0.312885 (Simulation time: 0 hr 10 min 38 sec) 
Heartbeat CPU 0 instructions: 140000003 cycles: 301718854 heartbeat IPC: 0.312952 cumulative IPC: 0.312892 (Simulation time: 0 hr 11 min 35 sec) 
Heartbeat CPU 0 instructions: 150000001 cycles: 333616064 heartbeat IPC: 0.313507 cumulative IPC: 0.312954 (Simulation time: 0 hr 12 min 28 sec) 
Heartbeat CPU 0 instructions: 160000000 cycles: 365481790 heartbeat IPC: 0.313817 cumulative IPC: 0.313032 (Simulation time: 0 hr 13 min 23 sec) 
Heartbeat CPU 0 instructions: 170000000 cycles: 397482051 heartbeat IPC: 0.312497 cumulative IPC: 0.312987 (Simulation time: 0 hr 14 min 19 sec) 
Heartbeat CPU 0 instructions: 180000000 cycles: 429336203 heartbeat IPC: 0.313931 cumulative IPC: 0.31306 (Simulation time: 0 hr 15 min 14 sec) 
Heartbeat CPU 0 instructions: 190000001 cycles: 461314829 heartbeat IPC: 0.312709 cumulative IPC: 0.313035 (Simulation time: 0 hr 16 min 11 sec) 
Heartbeat CPU 0 instructions: 200000001 cycles: 493406430 heartbeat IPC: 0.311608 cumulative IPC: 0.312939 (Simulation time: 0 hr 17 min 8 sec) 
*** Reached end of trace for Core: 0 Repeating trace: traces/spec2k17/server_027.champsimtrace.xz
Heartbeat CPU 0 instructions: 210000000 cycles: 525198971 heartbeat IPC: 0.314539 cumulative IPC: 0.313039 (Simulation time: 0 hr 18 min 3 sec) 
Heartbeat CPU 0 instructions: 220000000 cycles: 557032381 heartbeat IPC: 0.314135 cumulative IPC: 0.313103 (Simulation time: 0 hr 18 min 59 sec) 
Heartbeat CPU 0 instructions: 230000000 cycles: 589086902 heartbeat IPC: 0.311968 cumulative IPC: 0.31304 (Simulation time: 0 hr 19 min 56 sec) 
Heartbeat CPU 0 instructions: 240000001 cycles: 620952639 heartbeat IPC: 0.313817 cumulative IPC: 0.313081 (Simulation time: 0 hr 20 min 55 sec) 
Heartbeat CPU 0 instructions: 250000000 cycles: 652786684 heartbeat IPC: 0.314129 cumulative IPC: 0.313133 (Simulation time: 0 hr 21 min 57 sec) 
Finished CPU 0 instructions: 200000002 cycles: 638706665 cumulative IPC: 0.313133 (Simulation time: 0 hr 21 min 57 sec) 

ChampSim completed all CPUs

Region of Interest Statistics

CPU 0 cumulative IPC: 0.313133 instructions: 200000002 cycles: 638706665
ITLB TOTAL     ACCESS:   34673094  HIT:   32648149  MISS:    2024945  HIT %:    94.1599  MISS %:     5.8401   MPKI: 10.1247
ITLB LOAD TRANSLATION ACCESS:   34673094  HIT:   32648149  MISS:    2024945  HIT %:    94.1599  MISS %:     5.8401   MPKI: 10.1247
ITLB PREFETCH  REQUESTED:          0  ISSUED:          0  USEFUL:          0  USELESS:          0
ITLB USEFUL LOAD PREFETCHES:          0 PREFETCH ISSUED TO LOWER LEVEL:          0  ACCURACY: -nan
ITLB TIMELY PREFETCHES:          0 LATE PREFETCHES: 0 DROPPED PREFETCHES: 0
ITLB PREFETCHES SAME FILL-ORIGIN LEVEL: 0 DIFFERENT FILL-ORIGIN LEVEL: 0
ITLB AVERAGE MISS LATENCY: 9.03775 cycles
ITLB RQ	ACCESS:   40891103	FORWARD:          0	MERGED:    5734228	TO_CACHE:   35156875

DTLB TOTAL     ACCESS:   46465503  HIT:   44639604  MISS:    1825899  HIT %:    96.0704  MISS %:    3.92958   MPKI: 9.12949
DTLB LOAD TRANSLATION ACCESS:   46465503  HIT:   44639604  MISS:    1825899  HIT %:    96.0704  MISS %:    3.92958   MPKI: 9.12949
DTLB PREFETCH  REQUESTED:          0  ISSUED:          0  USEFUL:          0  USELESS:          0
DTLB USEFUL LOAD PREFETCHES:          0 PREFETCH ISSUED TO LOWER LEVEL:          0  ACCURACY: -nan
DTLB TIMELY PREFETCHES:          0 LATE PREFETCHES: 0 DROPPED PREFETCHES: 0
DTLB PREFETCHES SAME FILL-ORIGIN LEVEL: 0 DIFFERENT FILL-ORIGIN LEVEL: 0
DTLB AVERAGE MISS LATENCY: 9.2265 cycles
DTLB RQ	ACCESS:   61091307	FORWARD:          0	MERGED:   14560226	TO_CACHE:   46531081

STLB TOTAL     ACCESS:    3850844  HIT:    3842662  MISS:       8182  HIT %:    99.7875  MISS %:   0.212473   MPKI: 0.04091
STLB LOAD TRANSLATION ACCESS:    3850844  HIT:    3842662  MISS:       8182  HIT %:    99.7875  MISS %:   0.212473   MPKI: 0.04091
STLB PREFETCH  REQUESTED:          0  ISSUED:          0  USEFUL:          0  USELESS:          0
STLB USEFUL LOAD PREFETCHES:          0 PREFETCH ISSUED TO LOWER LEVEL:          0  ACCURACY: -nan
STLB TIMELY PREFETCHES:          0 LATE PREFETCHES: 0 DROPPED PREFETCHES: 0
STLB PREFETCHES SAME FILL-ORIGIN LEVEL: 0 DIFFERENT FILL-ORIGIN LEVEL: 0
STLB AVERAGE MISS LATENCY: 56.9614 cycles
STLB RQ	ACCESS:    3850844	FORWARD:          0	MERGED:          0	TO_CACHE:    3850844

STLB Hit, L1D data hit: 0
STLB Hit, L2C data hit: 0
STLB Hit, LLC data hit: 0
STLB Hit, LLC data miss: 0
STLB STLB hints to L2: 0
L1D TOTAL     ACCESS:   59272472  HIT:   55355365  MISS:    3917107  HIT %:    93.3914  MISS %:    6.60864   MPKI: 19.5855
L1D LOAD      ACCESS:   34240952  HIT:   31440365  MISS:    2800587  HIT %:    91.8209  MISS %:    8.17906   MPKI: 14.0029
L1D RFO       ACCESS:   25031520  HIT:   23915000  MISS:    1116520  HIT %:    95.5395  MISS %:    4.46046   MPKI: 5.5826
L1D PREFETCH  REQUESTED:          0  ISSUED:          0  USEFUL:          0  USELESS:          0
L1D USEFUL LOAD PREFETCHES:          0 PREFETCH ISSUED TO LOWER LEVEL:          0  ACCURACY: -nan
L1D TIMELY PREFETCHES:          0 LATE PREFETCHES: 0 DROPPED PREFETCHES: 0
L1D PREFETCHES SAME FILL-ORIGIN LEVEL: 0 DIFFERENT FILL-ORIGIN LEVEL: 0
L1D AVERAGE MISS LATENCY: 20.3321 cycles
L1D RQ	ACCESS:   47489163	FORWARD:          0	MERGED:   12848431	TO_CACHE:   34339770
L1D WQ	ACCESS:   26918036	FORWARD:     300962	MERGED:     166499	TO_CACHE:   26751537

L1D UNIQUE REGIONS ACCESSED: 0
L1D REGIONS CONFLICTS: 0
L1D Cross Page Prefetch Requests: 0
L1D Same Page Prefetch Requests: 0
L1D ROI Sum of L1D PQ occupancy: 0
L1D PREFETCHES PUSHED FROM L2C: 0
L1I TOTAL     ACCESS:   39382754  HIT:   28806282  MISS:   10576472  HIT %:    73.1444  MISS %:    26.8556   MPKI: 52.8824
L1I LOAD      ACCESS:   39382754  HIT:   28806282  MISS:   10576472  HIT %:    73.1444  MISS %:    26.8556   MPKI: 52.8824
L1I PREFETCH  REQUESTED:          0  ISSUED:          0  USEFUL:          0  USELESS:          0
L1I USEFUL LOAD PREFETCHES:          0 PREFETCH ISSUED TO LOWER LEVEL:          0  ACCURACY: -nan
L1I TIMELY PREFETCHES:          0 LATE PREFETCHES: 0 DROPPED PREFETCHES: 0
L1I PREFETCHES SAME FILL-ORIGIN LEVEL: 0 DIFFERENT FILL-ORIGIN LEVEL: 0
L1I AVERAGE MISS LATENCY: 16.5228 cycles
L1I RQ	ACCESS:   57945890	FORWARD:          0	MERGED:   17054787	TO_CACHE:   40891103

BTB TOTAL     ACCESS:   30075438  HIT:   17377784  MISS:   12697654  HIT %:    57.7807  MISS %:    42.2193   MPKI: 63.4883
BTB BRANCH_DIRECT_JUMP	ACCESS:    2026968  HIT:    1138640  MISS:     888328
BTB BRANCH_INDIRECT	ACCESS:   11863620  HIT:    7044030  MISS:    4819590
BTB BRANCH_CONDITIONAL	ACCESS:    7648131  HIT:    6314456  MISS:    1333675
BTB BRANCH_DIRECT_CALL	ACCESS:    3599197  HIT:    1507522  MISS:    2091675
BTB BRANCH_INDIRECT_CALL	ACCESS:     669164  HIT:     263401  MISS:     405763
BTB BRANCH_RETURN	ACCESS:    4268358  HIT:    1109735  MISS:    3158623
BTB BRANCH_OTHER ACCESS:          0  HIT:          0  MISS:          0

L2C TOTAL     ACCESS:   18234697  HIT:   16802580  MISS:    1432117  HIT %:    92.1462  MISS %:     7.8538   MPKI: 7.16058
L2C LOAD      ACCESS:   13377059  HIT:   12365885  MISS:    1011174  HIT %:     92.441  MISS %:    7.55902   MPKI: 5.05587
L2C DATA LOAD MPKI: 0.818375
L2C INSTRUCTION LOAD MPKI: 4.23749
L2C RFO       ACCESS:    1116517  HIT:     941200  MISS:     175317  HIT %:    84.2979  MISS %:    15.7021   MPKI: 0.876585
L2C PREFETCH  ACCESS:    1787744  HIT:    1592799  MISS:     194945  HIT %:    89.0955  MISS %:    10.9045   MPKI: 0.974725
AGUS PREFETCH L1 MISS: 0
L2C DATA PREFETCH MPKI: 0.974725
L2C INSTRUCTION PREFETCH MPKI: 0
L2C WRITEBACK ACCESS:    1944588  HIT:    1900059  MISS:      44529  HIT %:    97.7101  MISS %:    2.28989   MPKI: 0.222645
L2C LOAD TRANSLATION ACCESS:       8789  HIT:       2637  MISS:       6152  HIT %:    30.0034  MISS %:    69.9966   MPKI: 0.03076
L2C PREFETCH  REQUESTED:    1806628  ISSUED:    1806628  USEFUL:     127317  USELESS:      67606
L2C USEFUL LOAD PREFETCHES:     127317 PREFETCH ISSUED TO LOWER LEVEL:     205883  ACCURACY: 61.8395
L2C TIMELY PREFETCHES:     127317 LATE PREFETCHES: 10938 DROPPED PREFETCHES: 0
L2C PREFETCHES SAME FILL-ORIGIN LEVEL: 205883 DIFFERENT FILL-ORIGIN LEVEL: 0
L2C AVERAGE MISS LATENCY: 40.0757 cycles
L2C RQ	ACCESS:   14502368	FORWARD:          0	MERGED:          0	TO_CACHE:   14502365
L2C WQ	ACCESS:    1944588	FORWARD:          3	MERGED:          0	TO_CACHE:    1944588
L2C PQ	ACCESS:    1806628	FORWARD:          0	MERGED:          0	TO_CACHE:    1806628

L2C Instructions Evicting Data 302010
L2C Translations Evicting Data 4041
L2C Data Evicting Data 254990
L2C Instructions Evicting Instructions 543427
L2C Translations Evicting Instructions 2036
L2C Data Evicting Instructions 274973
L2C Instructions Evicting Translations 2062
L2C Translations Evicting Translations 75
L2C Data Evicting Translations 3974
L2C Dense regions hint from L2: 0
PSCL5 TOTAL     ACCESS:       8182  HIT:       8182  MISS:          0  HIT %:        100  MISS %:          0   MPKI: 0
PSCL5 LOAD TRANSLATION ACCESS:       8182  HIT:       8182  MISS:          0  HIT %:        100  MISS %:          0   MPKI: 0
PSCL5 PREFETCH  REQUESTED:          0  ISSUED:          0  USEFUL:          0  USELESS:          0
PSCL5 USEFUL LOAD PREFETCHES:          0 PREFETCH ISSUED TO LOWER LEVEL:          0  ACCURACY: -nan
PSCL5 TIMELY PREFETCHES:          0 LATE PREFETCHES: 0 DROPPED PREFETCHES: 0
PSCL5 PREFETCHES SAME FILL-ORIGIN LEVEL: 0 DIFFERENT FILL-ORIGIN LEVEL: 0

PSCL4 TOTAL     ACCESS:       7183  HIT:       7118  MISS:         65  HIT %:    99.0951  MISS %:   0.904914   MPKI: 0.000325
PSCL4 LOAD TRANSLATION ACCESS:       7183  HIT:       7118  MISS:         65  HIT %:    99.0951  MISS %:   0.904914   MPKI: 0.000325
PSCL4 PREFETCH  REQUESTED:          0  ISSUED:          0  USEFUL:          0  USELESS:          0
PSCL4 USEFUL LOAD PREFETCHES:          0 PREFETCH ISSUED TO LOWER LEVEL:          0  ACCURACY: -nan
PSCL4 TIMELY PREFETCHES:          0 LATE PREFETCHES: 0 DROPPED PREFETCHES: 0
PSCL4 PREFETCHES SAME FILL-ORIGIN LEVEL: 0 DIFFERENT FILL-ORIGIN LEVEL: 0

PSCL3 TOTAL     ACCESS:       7339  HIT:       7274  MISS:         65  HIT %:    99.1143  MISS %:   0.885679   MPKI: 0.000325
PSCL3 LOAD TRANSLATION ACCESS:       7339  HIT:       7274  MISS:         65  HIT %:    99.1143  MISS %:   0.885679   MPKI: 0.000325
PSCL3 PREFETCH  REQUESTED:          0  ISSUED:          0  USEFUL:          0  USELESS:          0
PSCL3 USEFUL LOAD PREFETCHES:          0 PREFETCH ISSUED TO LOWER LEVEL:          0  ACCURACY: -nan
PSCL3 TIMELY PREFETCHES:          0 LATE PREFETCHES: 0 DROPPED PREFETCHES: 0
PSCL3 PREFETCHES SAME FILL-ORIGIN LEVEL: 0 DIFFERENT FILL-ORIGIN LEVEL: 0

PSCL2 TOTAL     ACCESS:       8182  HIT:       7701  MISS:        481  HIT %:    94.1212  MISS %:    5.87876   MPKI: 0.002405
PSCL2 LOAD TRANSLATION ACCESS:       8182  HIT:       7701  MISS:        481  HIT %:    94.1212  MISS %:    5.87876   MPKI: 0.002405
PSCL2 PREFETCH  REQUESTED:          0  ISSUED:          0  USEFUL:          0  USELESS:          0
PSCL2 USEFUL LOAD PREFETCHES:          0 PREFETCH ISSUED TO LOWER LEVEL:          0  ACCURACY: -nan
PSCL2 TIMELY PREFETCHES:          0 LATE PREFETCHES: 0 DROPPED PREFETCHES: 0
PSCL2 PREFETCHES SAME FILL-ORIGIN LEVEL: 0 DIFFERENT FILL-ORIGIN LEVEL: 0

LLC TOTAL     ACCESS:    1629510  HIT:    1542503  MISS:      87007  HIT %:    94.6605  MISS %:    5.33946   MPKI: 0.435035
LLC LOAD      ACCESS:    1000518  HIT:     989966  MISS:      10552  HIT %:    98.9453  MISS %:    1.05465   MPKI: 0.05276
LLC RFO       ACCESS:     175033  HIT:     126426  MISS:      48607  HIT %:    72.2298  MISS %:    27.7702   MPKI: 0.243035
LLC PREFETCH  ACCESS:     205883  HIT:     179208  MISS:      26675  HIT %:    87.0436  MISS %:    12.9564   MPKI: 0.133375
AGUS PREFETCH L1 MISS: 0
LLC WRITEBACK ACCESS:     241924  HIT:     241138  MISS:        786  HIT %:    99.6751  MISS %:   0.324895   MPKI: 0.00393
LLC LOAD TRANSLATION ACCESS:       6152  HIT:       5765  MISS:        387  HIT %:    93.7094  MISS %:    6.29064   MPKI: 0.001935
LLC PREFETCH  REQUESTED:          0  ISSUED:          0  USEFUL:       2085  USELESS:      24195
LLC USEFUL LOAD PREFETCHES:       2085 PREFETCH ISSUED TO LOWER LEVEL:      26675  ACCURACY: 7.81631
LLC TIMELY PREFETCHES:       2085 LATE PREFETCHES: 0 DROPPED PREFETCHES: 0
LLC PREFETCHES SAME FILL-ORIGIN LEVEL: 0 DIFFERENT FILL-ORIGIN LEVEL: 0
LLC AVERAGE MISS LATENCY: 184.166 cycles
LLC RQ	ACCESS:    1181705	FORWARD:          0	MERGED:          0	TO_CACHE:    1181703
LLC WQ	ACCESS:     241924	FORWARD:          2	MERGED:          0	TO_CACHE:     241924
LLC PQ	ACCESS:     205883	FORWARD:          0	MERGED:          0	TO_CACHE:     205883

LLC Dense regions hint to LLC: 0

RAW hits: 1421643
Loads Generated: 48910806
Loads sent to L1D: 47489163
Stores Generated: 26918028
Stores sent to L1D: 26918036
Major fault: 0 Minor fault: 2582
Allocated PAGES: 2582
[Bingo] PHT Access: 857850
[Bingo] PHT Hit PC+Addr: 545850
[Bingo] PHT Hit PC+Offs: 33185
[Bingo] PHT Miss: 278815
[Bingo] Prefetch PC+Addr: 0
[Bingo] Prefetch PC+Offs: 0
[Bingo] Useful PC+Addr: 0
[Bingo] Useful PC+Offs: 0
[Bingo] Useless PC+Addr: 0
[Bingo] Useless PC+Offs: 0
[Bingo] L1 Prefetch per Region: 0
[Bingo] L2 Prefetch per Region: 4.12407
[Bingo] L3 Prefetch per Region: 0
[Bingo] No Prefetch per Region: 27.8759
[Bingo] Number of Voters Mean: 6.72768
[Bingo] Number of Voters SD: 6.91728
PHT read accesses: 2504760
PHT write accesses: 431373
AT read accesses: 2003798
AT write accesses: 2362321
FT read accesses: 1344565
FT write accesses: 857850
PS read accesses: 1174391
PS write accesses: 579035
PHT tag read accesses: 12955459
PHT tag write accesses: 977223
AT tag read accesses: 87881015
AT tag write accesses: 2435174
FT tag read accesses: 74560184
FT tag write accesses: 1759247
PS tag read accesses: 63980726
PS tag write accesses: 1753164

DRAM Statistics
 CHANNEL 0
 RQ ROW_BUFFER_HIT:      36879  ROW_BUFFER_MISS:      49330
 DBUS_CONGESTED:         19
 WQ ROW_BUFFER_HIT:       4040  ROW_BUFFER_MISS:      46355  FULL:          0

 AVG_CONGESTED_CYCLE: 5
 All warmup complete: 2
Channel 0 Bank busy for read cycles: 0
Channel 0 Bank busy for write cycles: 0
Channel 0
Rank 0
0banks busy for read cycles: 633031687
0banks busy for write cycles: 10326
1banks busy for read cycles: 1574170
1banks busy for write cycles: 1105502
2banks busy for read cycles: 431206
2banks busy for write cycles: 332916
3banks busy for read cycles: 201400
3banks busy for write cycles: 193764
4banks busy for read cycles: 161868
4banks busy for write cycles: 140357
5banks busy for read cycles: 113765
5banks busy for write cycles: 118116
6banks busy for read cycles: 115498
6banks busy for write cycles: 126770
7banks busy for read cycles: 142037
7banks busy for write cycles: 156610
8banks busy for read cycles: 419075
8banks busy for write cycles: 331599

CPU 0 Branch Prediction Accuracy: 99.8608% MPKI: 0.244675 Average ROB Occupancy at Mispredict: 29.9728
Branch types
NOT_BRANCH: 164851252 82.4256%
BRANCH_DIRECT_JUMP: 2026968 1.01348%
BRANCH_INDIRECT: 11863620 5.93181%
BRANCH_CONDITIONAL: 12721079 6.36054%
BRANCH_DIRECT_CALL: 3599197 1.7996%
BRANCH_INDIRECT_CALL: 669164 0.334582%
BRANCH_RETURN: 4268358 2.13418%
BRANCH_OTHER: 0 0%

DRAM PAGES: 1048576
Allocated PAGES: 2582
