
*** ChampSim Multicore Out-of-Order Simulator ***

Warmup Instructions: 50000000
Simulation Instructions: 200000000
Number of CPUs: 1
LLC sets: 2048
LLC ways: 16
Off-chip DRAM Size: 4096 MB Channels: 1 Width: 64-bit Data Rate: 6400 MT/s
CPU 0 runs traces/spec2k17/server_038.champsimtrace.xz
.xz
BTB has LRU replacement policy
ITLB has LRU replacement policy
DTLB has LRU replacement policy
STLB has LRU replacement policy
L1I has LRU replacement policy
L1D has LRU replacement policy
Bingo PHT WAYS: 16 and PHT_SIZE: 16384
Initialize SRRIP state for L2C
Initialize DRRIP state for LLC
Heartbeat CPU 0 instructions: 10000000 cycles: 2787169 heartbeat IPC: 3.58787 cumulative IPC: 3.58787 (Simulation time: 0 hr 0 min 32 sec) 
Heartbeat CPU 0 instructions: 20000002 cycles: 5572110 heartbeat IPC: 3.59074 cumulative IPC: 3.5893 (Simulation time: 0 hr 1 min 5 sec) 
Heartbeat CPU 0 instructions: 30000003 cycles: 8355869 heartbeat IPC: 3.59227 cumulative IPC: 3.59029 (Simulation time: 0 hr 1 min 38 sec) 
Heartbeat CPU 0 instructions: 40000001 cycles: 11140256 heartbeat IPC: 3.59145 cumulative IPC: 3.59058 (Simulation time: 0 hr 2 min 9 sec) 
Heartbeat CPU 0 instructions: 50000001 cycles: 13924931 heartbeat IPC: 3.59108 cumulative IPC: 3.59068 (Simulation time: 0 hr 2 min 38 sec) 

Warmup complete CPU 0 instructions: 50000001 cycles: 13924931 (Simulation time: 0 hr 2 min 38 sec) 

Heartbeat CPU 0 instructions: 60000000 cycles: 33936006 heartbeat IPC: 0.499723 cumulative IPC: 0.499723 (Simulation time: 0 hr 3 min 29 sec) 
Heartbeat CPU 0 instructions: 70000000 cycles: 53774911 heartbeat IPC: 0.50406 cumulative IPC: 0.501882 (Simulation time: 0 hr 4 min 19 sec) 
Heartbeat CPU 0 instructions: 80000000 cycles: 73614014 heartbeat IPC: 0.504055 cumulative IPC: 0.502604 (Simulation time: 0 hr 5 min 20 sec) 
Heartbeat CPU 0 instructions: 90000001 cycles: 93492868 heartbeat IPC: 0.503047 cumulative IPC: 0.502715 (Simulation time: 0 hr 6 min 10 sec) 
Heartbeat CPU 0 instructions: 100000002 cycles: 113324789 heartbeat IPC: 0.504238 cumulative IPC: 0.503019 (Simulation time: 0 hr 6 min 58 sec) 
*** Reached end of trace for Core: 0 Repeating trace: traces/spec2k17/server_038.champsimtrace.xz
Heartbeat CPU 0 instructions: 110000000 cycles: 133307036 heartbeat IPC: 0.500444 cumulative IPC: 0.502588 (Simulation time: 0 hr 7 min 51 sec) 
Heartbeat CPU 0 instructions: 120000003 cycles: 153215065 heartbeat IPC: 0.50231 cumulative IPC: 0.502548 (Simulation time: 0 hr 8 min 40 sec) 
Heartbeat CPU 0 instructions: 130000001 cycles: 173083463 heartbeat IPC: 0.503312 cumulative IPC: 0.502643 (Simulation time: 0 hr 9 min 32 sec) 
Heartbeat CPU 0 instructions: 140000001 cycles: 192948838 heartbeat IPC: 0.503388 cumulative IPC: 0.502726 (Simulation time: 0 hr 10 min 23 sec) 
Heartbeat CPU 0 instructions: 150000002 cycles: 212842424 heartbeat IPC: 0.502675 cumulative IPC: 0.502721 (Simulation time: 0 hr 11 min 14 sec) 
Heartbeat CPU 0 instructions: 160000000 cycles: 232747971 heartbeat IPC: 0.502372 cumulative IPC: 0.502689 (Simulation time: 0 hr 12 min 5 sec) 
Heartbeat CPU 0 instructions: 170000002 cycles: 252556277 heartbeat IPC: 0.504839 cumulative IPC: 0.502868 (Simulation time: 0 hr 12 min 57 sec) 
Heartbeat CPU 0 instructions: 180000000 cycles: 272353812 heartbeat IPC: 0.505113 cumulative IPC: 0.50304 (Simulation time: 0 hr 13 min 51 sec) 
Heartbeat CPU 0 instructions: 190000002 cycles: 292193421 heartbeat IPC: 0.504042 cumulative IPC: 0.503111 (Simulation time: 0 hr 14 min 44 sec) 
Heartbeat CPU 0 instructions: 200000001 cycles: 311997166 heartbeat IPC: 0.504955 cumulative IPC: 0.503234 (Simulation time: 0 hr 15 min 35 sec) 
*** Reached end of trace for Core: 0 Repeating trace: traces/spec2k17/server_038.champsimtrace.xz
Heartbeat CPU 0 instructions: 210000003 cycles: 331940137 heartbeat IPC: 0.50143 cumulative IPC: 0.503121 (Simulation time: 0 hr 16 min 25 sec) 
Heartbeat CPU 0 instructions: 220000000 cycles: 351853320 heartbeat IPC: 0.50218 cumulative IPC: 0.503065 (Simulation time: 0 hr 17 min 14 sec) 
Heartbeat CPU 0 instructions: 230000003 cycles: 371676498 heartbeat IPC: 0.50446 cumulative IPC: 0.503142 (Simulation time: 0 hr 18 min 7 sec) 
Heartbeat CPU 0 instructions: 240000001 cycles: 391570693 heartbeat IPC: 0.502659 cumulative IPC: 0.503117 (Simulation time: 0 hr 19 min 1 sec) 
Heartbeat CPU 0 instructions: 250000001 cycles: 411463506 heartbeat IPC: 0.502694 cumulative IPC: 0.503096 (Simulation time: 0 hr 19 min 55 sec) 
Finished CPU 0 instructions: 200000000 cycles: 397538575 cumulative IPC: 0.503096 (Simulation time: 0 hr 19 min 55 sec) 

ChampSim completed all CPUs

Region of Interest Statistics

CPU 0 cumulative IPC: 0.503096 instructions: 200000000 cycles: 397538575
ITLB TOTAL     ACCESS:   35174757  HIT:   32682046  MISS:    2492711  HIT %:    92.9134  MISS %:    7.08665   MPKI: 12.4636
ITLB LOAD TRANSLATION ACCESS:   35174757  HIT:   32682046  MISS:    2492711  HIT %:    92.9134  MISS %:    7.08665   MPKI: 12.4636
ITLB PREFETCH  REQUESTED:          0  ISSUED:          0  USEFUL:          0  USELESS:          0
ITLB USEFUL LOAD PREFETCHES:          0 PREFETCH ISSUED TO LOWER LEVEL:          0  ACCURACY: -nan
ITLB TIMELY PREFETCHES:          0 LATE PREFETCHES: 0 DROPPED PREFETCHES: 0
ITLB PREFETCHES SAME FILL-ORIGIN LEVEL: 0 DIFFERENT FILL-ORIGIN LEVEL: 0
ITLB AVERAGE MISS LATENCY: 9.01526 cycles
ITLB RQ	ACCESS:   41437811	FORWARD:          0	MERGED:    5451970	TO_CACHE:   35985841

DTLB TOTAL     ACCESS:   40223301  HIT:   38227017  MISS:    1996284  HIT %:     95.037  MISS %:      4.963   MPKI: 9.98142
DTLB LOAD TRANSLATION ACCESS:   40223301  HIT:   38227017  MISS:    1996284  HIT %:     95.037  MISS %:      4.963   MPKI: 9.98142
DTLB PREFETCH  REQUESTED:          0  ISSUED:          0  USEFUL:          0  USELESS:          0
DTLB USEFUL LOAD PREFETCHES:          0 PREFETCH ISSUED TO LOWER LEVEL:          0  ACCURACY: -nan
DTLB TIMELY PREFETCHES:          0 LATE PREFETCHES: 0 DROPPED PREFETCHES: 0
DTLB PREFETCHES SAME FILL-ORIGIN LEVEL: 0 DIFFERENT FILL-ORIGIN LEVEL: 0
DTLB AVERAGE MISS LATENCY: 9.67784 cycles
DTLB RQ	ACCESS:   56024866	FORWARD:          0	MERGED:   15647622	TO_CACHE:   40377244

STLB TOTAL     ACCESS:    4488995  HIT:    4466188  MISS:      22807  HIT %:    99.4919  MISS %:   0.508065   MPKI: 0.114035
STLB LOAD TRANSLATION ACCESS:    4488995  HIT:    4466188  MISS:      22807  HIT %:    99.4919  MISS %:   0.508065   MPKI: 0.114035
STLB PREFETCH  REQUESTED:          0  ISSUED:          0  USEFUL:          0  USELESS:          0
STLB USEFUL LOAD PREFETCHES:          0 PREFETCH ISSUED TO LOWER LEVEL:          0  ACCURACY: -nan
STLB TIMELY PREFETCHES:          0 LATE PREFETCHES: 0 DROPPED PREFETCHES: 0
STLB PREFETCHES SAME FILL-ORIGIN LEVEL: 0 DIFFERENT FILL-ORIGIN LEVEL: 0
STLB AVERAGE MISS LATENCY: 60.0907 cycles
STLB RQ	ACCESS:    4488995	FORWARD:          0	MERGED:          0	TO_CACHE:    4488995

STLB Hit, L1D data hit: 0
STLB Hit, L2C data hit: 0
STLB Hit, LLC data hit: 0
STLB Hit, LLC data miss: 0
STLB STLB hints to L2: 0
L1D TOTAL     ACCESS:   55629674  HIT:   53938711  MISS:    1690963  HIT %:    96.9603  MISS %:    3.03968   MPKI: 8.45481
L1D LOAD      ACCESS:   31435700  HIT:   30000519  MISS:    1435181  HIT %:    95.4346  MISS %:    4.56545   MPKI: 7.17591
L1D RFO       ACCESS:   24193974  HIT:   23938192  MISS:     255782  HIT %:    98.9428  MISS %:    1.05721   MPKI: 1.27891
L1D PREFETCH  REQUESTED:          0  ISSUED:          0  USEFUL:          0  USELESS:          0
L1D USEFUL LOAD PREFETCHES:          0 PREFETCH ISSUED TO LOWER LEVEL:          0  ACCURACY: -nan
L1D TIMELY PREFETCHES:          0 LATE PREFETCHES: 0 DROPPED PREFETCHES: 0
L1D PREFETCHES SAME FILL-ORIGIN LEVEL: 0 DIFFERENT FILL-ORIGIN LEVEL: 0
L1D AVERAGE MISS LATENCY: 25.7882 cycles
L1D RQ	ACCESS:   46051377	FORWARD:          0	MERGED:   14283114	TO_CACHE:   31516490
L1D WQ	ACCESS:   24697059	FORWARD:     251773	MERGED:     188683	TO_CACHE:   24508376

L1D UNIQUE REGIONS ACCESSED: 0
L1D REGIONS CONFLICTS: 0
L1D Cross Page Prefetch Requests: 0
L1D Same Page Prefetch Requests: 0
L1D ROI Sum of L1D PQ occupancy: 0
L1D PREFETCHES PUSHED FROM L2C: 0
L1I TOTAL     ACCESS:   37493904  HIT:   22055412  MISS:   15438492  HIT %:     58.824  MISS %:     41.176   MPKI: 77.1925
L1I LOAD      ACCESS:   37493904  HIT:   22055412  MISS:   15438492  HIT %:     58.824  MISS %:     41.176   MPKI: 77.1925
L1I PREFETCH  REQUESTED:          0  ISSUED:          0  USEFUL:          0  USELESS:          0
L1I USEFUL LOAD PREFETCHES:          0 PREFETCH ISSUED TO LOWER LEVEL:          0  ACCURACY: -nan
L1I TIMELY PREFETCHES:          0 LATE PREFETCHES: 0 DROPPED PREFETCHES: 0
L1I PREFETCHES SAME FILL-ORIGIN LEVEL: 0 DIFFERENT FILL-ORIGIN LEVEL: 0
L1I AVERAGE MISS LATENCY: 14.1396 cycles
L1I RQ	ACCESS:   62467037	FORWARD:          0	MERGED:   21029226	TO_CACHE:   41437811

BTB TOTAL     ACCESS:   28064303  HIT:   24482602  MISS:    3581701  HIT %:    87.2375  MISS %:    12.7625   MPKI: 17.9085
BTB BRANCH_DIRECT_JUMP	ACCESS:    2068715  HIT:    1958904  MISS:     109811
BTB BRANCH_INDIRECT	ACCESS:   12589489  HIT:   11340070  MISS:    1249419
BTB BRANCH_CONDITIONAL	ACCESS:    3946651  HIT:    3830860  MISS:     115791
BTB BRANCH_DIRECT_CALL	ACCESS:    3834255  HIT:    3580644  MISS:     253611
BTB BRANCH_INDIRECT_CALL	ACCESS:     895479  HIT:     719752  MISS:     175727
BTB BRANCH_RETURN	ACCESS:    4729714  HIT:    3052372  MISS:    1677342
BTB BRANCH_OTHER ACCESS:          0  HIT:          0  MISS:          0

L2C TOTAL     ACCESS:   19018969  HIT:   18374702  MISS:     644267  HIT %:    96.6125  MISS %:     3.3875   MPKI: 3.22133
L2C LOAD      ACCESS:   16873620  HIT:   16638396  MISS:     235224  HIT %:     98.606  MISS %:    1.39403   MPKI: 1.17612
L2C DATA LOAD MPKI: 1.03557
L2C INSTRUCTION LOAD MPKI: 0.140545
L2C RFO       ACCESS:     255782  HIT:     151382  MISS:     104400  HIT %:     59.184  MISS %:     40.816   MPKI: 0.522
L2C PREFETCH  ACCESS:     962573  HIT:     692515  MISS:     270058  HIT %:    71.9442  MISS %:    28.0558   MPKI: 1.35029
AGUS PREFETCH L1 MISS: 0
L2C DATA PREFETCH MPKI: 1.35029
L2C INSTRUCTION PREFETCH MPKI: 0
L2C WRITEBACK ACCESS:     895522  HIT:     881192  MISS:      14330  HIT %:    98.3998  MISS %:    1.60018   MPKI: 0.07165
L2C LOAD TRANSLATION ACCESS:      31472  HIT:      11217  MISS:      20255  HIT %:    35.6412  MISS %:    64.3588   MPKI: 0.101275
L2C PREFETCH  REQUESTED:    1004328  ISSUED:    1004328  USEFUL:     221277  USELESS:      48712
L2C USEFUL LOAD PREFETCHES:     221277 PREFETCH ISSUED TO LOWER LEVEL:     276528  ACCURACY: 80.0197
L2C TIMELY PREFETCHES:     221277 LATE PREFETCHES: 6470 DROPPED PREFETCHES: 0
L2C PREFETCHES SAME FILL-ORIGIN LEVEL: 276528 DIFFERENT FILL-ORIGIN LEVEL: 0
L2C AVERAGE MISS LATENCY: 55.0329 cycles
L2C RQ	ACCESS:   17160927	FORWARD:          0	MERGED:          0	TO_CACHE:   17160874
L2C WQ	ACCESS:     895522	FORWARD:         53	MERGED:          0	TO_CACHE:     895522
L2C PQ	ACCESS:    1004328	FORWARD:          0	MERGED:         12	TO_CACHE:    1004316

L2C Instructions Evicting Data 25229
L2C Translations Evicting Data 18687
L2C Data Evicting Data 538560
L2C Instructions Evicting Instructions 2011
L2C Translations Evicting Instructions 923
L2C Data Evicting Instructions 24467
L2C Instructions Evicting Translations 869
L2C Translations Evicting Translations 645
L2C Data Evicting Translations 18546
L2C Dense regions hint from L2: 0
PSCL5 TOTAL     ACCESS:      22807  HIT:      22807  MISS:          0  HIT %:        100  MISS %:          0   MPKI: 0
PSCL5 LOAD TRANSLATION ACCESS:      22807  HIT:      22807  MISS:          0  HIT %:        100  MISS %:          0   MPKI: 0
PSCL5 PREFETCH  REQUESTED:          0  ISSUED:          0  USEFUL:          0  USELESS:          0
PSCL5 USEFUL LOAD PREFETCHES:          0 PREFETCH ISSUED TO LOWER LEVEL:          0  ACCURACY: -nan
PSCL5 TIMELY PREFETCHES:          0 LATE PREFETCHES: 0 DROPPED PREFETCHES: 0
PSCL5 PREFETCHES SAME FILL-ORIGIN LEVEL: 0 DIFFERENT FILL-ORIGIN LEVEL: 0

PSCL4 TOTAL     ACCESS:      22205  HIT:      22195  MISS:         10  HIT %:     99.955  MISS %:  0.0450349   MPKI: 5e-05
PSCL4 LOAD TRANSLATION ACCESS:      22205  HIT:      22195  MISS:         10  HIT %:     99.955  MISS %:  0.0450349   MPKI: 5e-05
PSCL4 PREFETCH  REQUESTED:          0  ISSUED:          0  USEFUL:          0  USELESS:          0
PSCL4 USEFUL LOAD PREFETCHES:          0 PREFETCH ISSUED TO LOWER LEVEL:          0  ACCURACY: -nan
PSCL4 TIMELY PREFETCHES:          0 LATE PREFETCHES: 0 DROPPED PREFETCHES: 0
PSCL4 PREFETCHES SAME FILL-ORIGIN LEVEL: 0 DIFFERENT FILL-ORIGIN LEVEL: 0

PSCL3 TOTAL     ACCESS:      22742  HIT:      22673  MISS:         69  HIT %:    99.6966  MISS %:   0.303403   MPKI: 0.000345
PSCL3 LOAD TRANSLATION ACCESS:      22742  HIT:      22673  MISS:         69  HIT %:    99.6966  MISS %:   0.303403   MPKI: 0.000345
PSCL3 PREFETCH  REQUESTED:          0  ISSUED:          0  USEFUL:          0  USELESS:          0
PSCL3 USEFUL LOAD PREFETCHES:          0 PREFETCH ISSUED TO LOWER LEVEL:          0  ACCURACY: -nan
PSCL3 TIMELY PREFETCHES:          0 LATE PREFETCHES: 0 DROPPED PREFETCHES: 0
PSCL3 PREFETCHES SAME FILL-ORIGIN LEVEL: 0 DIFFERENT FILL-ORIGIN LEVEL: 0

PSCL2 TOTAL     ACCESS:      22807  HIT:      14198  MISS:       8609  HIT %:    62.2528  MISS %:    37.7472   MPKI: 0.043045
PSCL2 LOAD TRANSLATION ACCESS:      22807  HIT:      14198  MISS:       8609  HIT %:    62.2528  MISS %:    37.7472   MPKI: 0.043045
PSCL2 PREFETCH  REQUESTED:          0  ISSUED:          0  USEFUL:          0  USELESS:          0
PSCL2 USEFUL LOAD PREFETCHES:          0 PREFETCH ISSUED TO LOWER LEVEL:          0  ACCURACY: -nan
PSCL2 TIMELY PREFETCHES:          0 LATE PREFETCHES: 0 DROPPED PREFETCHES: 0
PSCL2 PREFETCHES SAME FILL-ORIGIN LEVEL: 0 DIFFERENT FILL-ORIGIN LEVEL: 0

LLC TOTAL     ACCESS:     941028  HIT:     838463  MISS:     102565  HIT %:    89.1007  MISS %:    10.8993   MPKI: 0.512825
LLC LOAD      ACCESS:     228824  HIT:     193477  MISS:      35347  HIT %:    84.5528  MISS %:    15.4472   MPKI: 0.176735
LLC RFO       ACCESS:     104329  HIT:      88048  MISS:      16281  HIT %:    84.3946  MISS %:    15.6054   MPKI: 0.081405
LLC PREFETCH  ACCESS:     276527  HIT:     226779  MISS:      49748  HIT %:    82.0097  MISS %:    17.9903   MPKI: 0.24874
AGUS PREFETCH L1 MISS: 0
LLC WRITEBACK ACCESS:     311093  HIT:     310459  MISS:        634  HIT %:    99.7962  MISS %:   0.203798   MPKI: 0.00317
LLC LOAD TRANSLATION ACCESS:      20255  HIT:      19700  MISS:        555  HIT %:    97.2599  MISS %:    2.74006   MPKI: 0.002775
LLC PREFETCH  REQUESTED:          0  ISSUED:          0  USEFUL:        995  USELESS:      46366
LLC USEFUL LOAD PREFETCHES:        995 PREFETCH ISSUED TO LOWER LEVEL:      49748  ACCURACY: 2.00008
LLC TIMELY PREFETCHES:        995 LATE PREFETCHES: 0 DROPPED PREFETCHES: 0
LLC PREFETCHES SAME FILL-ORIGIN LEVEL: 0 DIFFERENT FILL-ORIGIN LEVEL: 0
LLC AVERAGE MISS LATENCY: 164.661 cycles
LLC RQ	ACCESS:     353409	FORWARD:          0	MERGED:          0	TO_CACHE:     353408
LLC WQ	ACCESS:     311093	FORWARD:          2	MERGED:          0	TO_CACHE:     311093
LLC PQ	ACCESS:     276528	FORWARD:          0	MERGED:          0	TO_CACHE:     276527

LLC Dense regions hint to LLC: 0

RAW hits: 2048373
Loads Generated: 48099750
Loads sent to L1D: 46051377
Stores Generated: 24697058
Stores sent to L1D: 24697059
Major fault: 0 Minor fault: 5748
Allocated PAGES: 5748
[Bingo] PHT Access: 260292
[Bingo] PHT Hit PC+Addr: 126340
[Bingo] PHT Hit PC+Offs: 67815
[Bingo] PHT Miss: 66137
[Bingo] Prefetch PC+Addr: 0
[Bingo] Prefetch PC+Offs: 0
[Bingo] Useful PC+Addr: 0
[Bingo] Useful PC+Offs: 0
[Bingo] Useless PC+Addr: 0
[Bingo] Useless PC+Offs: 0
[Bingo] L1 Prefetch per Region: 0
[Bingo] L2 Prefetch per Region: 6.37151
[Bingo] L3 Prefetch per Region: 0
[Bingo] No Prefetch per Region: 25.6285
[Bingo] Number of Voters Mean: 11.4005
[Bingo] Number of Voters SD: 8.71908
PHT read accesses: 1679185
PHT write accesses: 149374
AT read accesses: 1128358
AT write accesses: 1205313
FT read accesses: 703701
FT write accesses: 260292
PS read accesses: 492347
PS write accesses: 194155
PHT tag read accesses: 5717029
PHT tag write accesses: 275714
AT tag read accesses: 39890665
AT tag write accesses: 1277726
FT tag read accesses: 28241948
FT tag write accesses: 695734
PS tag read accesses: 29459071
PS tag write accesses: 686171

DRAM Statistics
 CHANNEL 0
 RQ ROW_BUFFER_HIT:      35420  ROW_BUFFER_MISS:      66509
 DBUS_CONGESTED:         20
 WQ ROW_BUFFER_HIT:       2806  ROW_BUFFER_MISS:      30826  FULL:          0

 AVG_CONGESTED_CYCLE: 4
 All warmup complete: 2
Channel 0 Bank busy for read cycles: 0
Channel 0 Bank busy for write cycles: 0
Channel 0
Rank 0
0banks busy for read cycles: 387208327
0banks busy for write cycles: 19968
1banks busy for read cycles: 4005549
1banks busy for write cycles: 2746140
2banks busy for read cycles: 1346344
2banks busy for write cycles: 618468
3banks busy for read cycles: 800689
3banks busy for write cycles: 160379
4banks busy for read cycles: 134407
4banks busy for write cycles: 111428
5banks busy for read cycles: 58173
5banks busy for write cycles: 36713
6banks busy for read cycles: 80448
6banks busy for write cycles: 20134
7banks busy for read cycles: 49041
7banks busy for write cycles: 9237
8banks busy for read cycles: 125589
8banks busy for write cycles: 7542

CPU 0 Branch Prediction Accuracy: 99.9778% MPKI: 0.038155 Average ROB Occupancy at Mispredict: 21.4532
Branch types
NOT_BRANCH: 165656544 82.8283%
BRANCH_DIRECT_JUMP: 2068715 1.03436%
BRANCH_INDIRECT: 12589489 6.29474%
BRANCH_CONDITIONAL: 10225815 5.11291%
BRANCH_DIRECT_CALL: 3834255 1.91713%
BRANCH_INDIRECT_CALL: 895479 0.44774%
BRANCH_RETURN: 4729714 2.36486%
BRANCH_OTHER: 0 0%

DRAM PAGES: 1048576
Allocated PAGES: 5748
