
*** ChampSim Multicore Out-of-Order Simulator ***

Warmup Instructions: 50000000
Simulation Instructions: 200000000
Number of CPUs: 1
LLC sets: 2048
LLC ways: 16
Off-chip DRAM Size: 4096 MB Channels: 1 Width: 64-bit Data Rate: 6400 MT/s
CPU 0 runs traces/spec2k17/server_015.champsimtrace.xz
.xz
BTB has LRU replacement policy
ITLB has LRU replacement policy
DTLB has LRU replacement policy
STLB has LRU replacement policy
L1I has LRU replacement policy
L1D has LRU replacement policy
Bingo PHT WAYS: 16 and PHT_SIZE: 16384
Initialize SRRIP state for L2C
Initialize DRRIP state for LLC
Heartbeat CPU 0 instructions: 10000002 cycles: 2682228 heartbeat IPC: 3.72824 cumulative IPC: 3.72824 (Simulation time: 0 hr 0 min 26 sec) 
Heartbeat CPU 0 instructions: 20000000 cycles: 5401992 heartbeat IPC: 3.67679 cumulative IPC: 3.70234 (Simulation time: 0 hr 0 min 55 sec) 
Heartbeat CPU 0 instructions: 30000001 cycles: 8090337 heartbeat IPC: 3.71976 cumulative IPC: 3.70813 (Simulation time: 0 hr 1 min 20 sec) 
Heartbeat CPU 0 instructions: 40000000 cycles: 10777962 heartbeat IPC: 3.72076 cumulative IPC: 3.71128 (Simulation time: 0 hr 1 min 46 sec) 
Heartbeat CPU 0 instructions: 50000000 cycles: 13465430 heartbeat IPC: 3.72097 cumulative IPC: 3.71321 (Simulation time: 0 hr 2 min 14 sec) 

Warmup complete CPU 0 instructions: 50000004 cycles: 13465431 (Simulation time: 0 hr 2 min 14 sec) 

Heartbeat CPU 0 instructions: 60000002 cycles: 28875042 heartbeat IPC: 0.648946 cumulative IPC: 0.648946 (Simulation time: 0 hr 3 min 7 sec) 
Heartbeat CPU 0 instructions: 70000003 cycles: 44246651 heartbeat IPC: 0.65055 cumulative IPC: 0.649747 (Simulation time: 0 hr 3 min 58 sec) 
Heartbeat CPU 0 instructions: 80000001 cycles: 59620878 heartbeat IPC: 0.650439 cumulative IPC: 0.649977 (Simulation time: 0 hr 4 min 45 sec) 
Heartbeat CPU 0 instructions: 90000000 cycles: 74994358 heartbeat IPC: 0.650471 cumulative IPC: 0.650101 (Simulation time: 0 hr 5 min 32 sec) 
Heartbeat CPU 0 instructions: 100000002 cycles: 90369248 heartbeat IPC: 0.650411 cumulative IPC: 0.650163 (Simulation time: 0 hr 6 min 16 sec) 
Heartbeat CPU 0 instructions: 110000000 cycles: 105736014 heartbeat IPC: 0.650755 cumulative IPC: 0.650261 (Simulation time: 0 hr 7 min 3 sec) 
Heartbeat CPU 0 instructions: 120000000 cycles: 121112977 heartbeat IPC: 0.650323 cumulative IPC: 0.65027 (Simulation time: 0 hr 7 min 52 sec) 
Heartbeat CPU 0 instructions: 130000000 cycles: 136495137 heartbeat IPC: 0.650104 cumulative IPC: 0.650249 (Simulation time: 0 hr 8 min 40 sec) 
Heartbeat CPU 0 instructions: 140000003 cycles: 151858056 heartbeat IPC: 0.650918 cumulative IPC: 0.650324 (Simulation time: 0 hr 9 min 26 sec) 
Heartbeat CPU 0 instructions: 150000002 cycles: 167261908 heartbeat IPC: 0.649188 cumulative IPC: 0.65021 (Simulation time: 0 hr 10 min 14 sec) 
Heartbeat CPU 0 instructions: 160000000 cycles: 182651014 heartbeat IPC: 0.64981 cumulative IPC: 0.650174 (Simulation time: 0 hr 10 min 59 sec) 
Heartbeat CPU 0 instructions: 170000000 cycles: 198037929 heartbeat IPC: 0.649903 cumulative IPC: 0.650151 (Simulation time: 0 hr 11 min 46 sec) 
Heartbeat CPU 0 instructions: 180000001 cycles: 213460254 heartbeat IPC: 0.648411 cumulative IPC: 0.650017 (Simulation time: 0 hr 12 min 34 sec) 
Heartbeat CPU 0 instructions: 190000000 cycles: 228854937 heartbeat IPC: 0.649575 cumulative IPC: 0.649985 (Simulation time: 0 hr 13 min 20 sec) 
Heartbeat CPU 0 instructions: 200000000 cycles: 244264295 heartbeat IPC: 0.648956 cumulative IPC: 0.649917 (Simulation time: 0 hr 14 min 9 sec) 
Heartbeat CPU 0 instructions: 210000003 cycles: 259642950 heartbeat IPC: 0.650252 cumulative IPC: 0.649938 (Simulation time: 0 hr 14 min 54 sec) 
Heartbeat CPU 0 instructions: 220000000 cycles: 275052084 heartbeat IPC: 0.648966 cumulative IPC: 0.64988 (Simulation time: 0 hr 15 min 42 sec) 
Heartbeat CPU 0 instructions: 230000000 cycles: 290427784 heartbeat IPC: 0.650377 cumulative IPC: 0.649908 (Simulation time: 0 hr 16 min 30 sec) 
Heartbeat CPU 0 instructions: 240000002 cycles: 305798440 heartbeat IPC: 0.65059 cumulative IPC: 0.649944 (Simulation time: 0 hr 17 min 16 sec) 
Heartbeat CPU 0 instructions: 250000000 cycles: 321193436 heartbeat IPC: 0.649562 cumulative IPC: 0.649925 (Simulation time: 0 hr 18 min 5 sec) 
Finished CPU 0 instructions: 200000000 cycles: 307728015 cumulative IPC: 0.649925 (Simulation time: 0 hr 18 min 5 sec) 

ChampSim completed all CPUs

Region of Interest Statistics

CPU 0 cumulative IPC: 0.649925 instructions: 200000000 cycles: 307728015
ITLB TOTAL     ACCESS:   33952703  HIT:   32266549  MISS:    1686154  HIT %:    95.0338  MISS %:    4.96618   MPKI: 8.43077
ITLB LOAD TRANSLATION ACCESS:   33952703  HIT:   32266549  MISS:    1686154  HIT %:    95.0338  MISS %:    4.96618   MPKI: 8.43077
ITLB PREFETCH  REQUESTED:          0  ISSUED:          0  USEFUL:          0  USELESS:          0
ITLB USEFUL LOAD PREFETCHES:          0 PREFETCH ISSUED TO LOWER LEVEL:          0  ACCURACY: -nan
ITLB TIMELY PREFETCHES:          0 LATE PREFETCHES: 0 DROPPED PREFETCHES: 0
ITLB PREFETCHES SAME FILL-ORIGIN LEVEL: 0 DIFFERENT FILL-ORIGIN LEVEL: 0
ITLB AVERAGE MISS LATENCY: 9.00261 cycles
ITLB RQ	ACCESS:   39517849	FORWARD:          0	MERGED:    4991173	TO_CACHE:   34526676

DTLB TOTAL     ACCESS:   39497395  HIT:   38753655  MISS:     743740  HIT %:     98.117  MISS %:    1.88301   MPKI: 3.7187
DTLB LOAD TRANSLATION ACCESS:   39497395  HIT:   38753655  MISS:     743740  HIT %:     98.117  MISS %:    1.88301   MPKI: 3.7187
DTLB PREFETCH  REQUESTED:          0  ISSUED:          0  USEFUL:          0  USELESS:          0
DTLB USEFUL LOAD PREFETCHES:          0 PREFETCH ISSUED TO LOWER LEVEL:          0  ACCURACY: -nan
DTLB TIMELY PREFETCHES:          0 LATE PREFETCHES: 0 DROPPED PREFETCHES: 0
DTLB PREFETCHES SAME FILL-ORIGIN LEVEL: 0 DIFFERENT FILL-ORIGIN LEVEL: 0
DTLB AVERAGE MISS LATENCY: 9.00122 cycles
DTLB RQ	ACCESS:   59260809	FORWARD:          0	MERGED:   19684715	TO_CACHE:   39576094

STLB TOTAL     ACCESS:    2429894  HIT:    2429889  MISS:          5  HIT %:    99.9998  MISS %: 0.00020577   MPKI: 2.5e-05
STLB LOAD TRANSLATION ACCESS:    2429894  HIT:    2429889  MISS:          5  HIT %:    99.9998  MISS %: 0.00020577   MPKI: 2.5e-05
STLB PREFETCH  REQUESTED:          0  ISSUED:          0  USEFUL:          0  USELESS:          0
STLB USEFUL LOAD PREFETCHES:          0 PREFETCH ISSUED TO LOWER LEVEL:          0  ACCURACY: -nan
STLB TIMELY PREFETCHES:          0 LATE PREFETCHES: 0 DROPPED PREFETCHES: 0
STLB PREFETCHES SAME FILL-ORIGIN LEVEL: 0 DIFFERENT FILL-ORIGIN LEVEL: 0
STLB AVERAGE MISS LATENCY: 119.8 cycles
STLB RQ	ACCESS:    2429894	FORWARD:          0	MERGED:          0	TO_CACHE:    2429894

STLB Hit, L1D data hit: 0
STLB Hit, L2C data hit: 0
STLB Hit, LLC data hit: 0
STLB Hit, LLC data miss: 0
STLB STLB hints to L2: 0
L1D TOTAL     ACCESS:   59260659  HIT:   59260149  MISS:        510  HIT %:    99.9991  MISS %: 0.000860605   MPKI: 0.00255
L1D LOAD      ACCESS:   26985464  HIT:   26985032  MISS:        432  HIT %:    99.9984  MISS %: 0.00160086   MPKI: 0.00216
L1D RFO       ACCESS:   32275195  HIT:   32275117  MISS:         78  HIT %:    99.9998  MISS %: 0.000241672   MPKI: 0.00039
L1D PREFETCH  REQUESTED:          0  ISSUED:          0  USEFUL:          0  USELESS:          0
L1D USEFUL LOAD PREFETCHES:          0 PREFETCH ISSUED TO LOWER LEVEL:          0  ACCURACY: -nan
L1D TIMELY PREFETCHES:          0 LATE PREFETCHES: 0 DROPPED PREFETCHES: 0
L1D PREFETCHES SAME FILL-ORIGIN LEVEL: 0 DIFFERENT FILL-ORIGIN LEVEL: 0
L1D AVERAGE MISS LATENCY: 26.6392 cycles
L1D RQ	ACCESS:   44833477	FORWARD:          0	MERGED:   17496100	TO_CACHE:   26985473
L1D WQ	ACCESS:   32718443	FORWARD:     351904	MERGED:     443107	TO_CACHE:   32275336

L1D UNIQUE REGIONS ACCESSED: 0
L1D REGIONS CONFLICTS: 0
L1D Cross Page Prefetch Requests: 0
L1D Same Page Prefetch Requests: 0
L1D ROI Sum of L1D PQ occupancy: 0
L1D PREFETCHES PUSHED FROM L2C: 0
L1I TOTAL     ACCESS:   38077597  HIT:   32088061  MISS:    5989536  HIT %:    84.2702  MISS %:    15.7298   MPKI: 29.9477
L1I LOAD      ACCESS:   38077597  HIT:   32088061  MISS:    5989536  HIT %:    84.2702  MISS %:    15.7298   MPKI: 29.9477
L1I PREFETCH  REQUESTED:          0  ISSUED:          0  USEFUL:          0  USELESS:          0
L1I USEFUL LOAD PREFETCHES:          0 PREFETCH ISSUED TO LOWER LEVEL:          0  ACCURACY: -nan
L1I TIMELY PREFETCHES:          0 LATE PREFETCHES: 0 DROPPED PREFETCHES: 0
L1I PREFETCHES SAME FILL-ORIGIN LEVEL: 0 DIFFERENT FILL-ORIGIN LEVEL: 0
L1I AVERAGE MISS LATENCY: 14.0415 cycles
L1I RQ	ACCESS:   60196139	FORWARD:          0	MERGED:   20678290	TO_CACHE:   39517849

BTB TOTAL     ACCESS:   27608398  HIT:   25159622  MISS:    2448776  HIT %:    91.1303  MISS %:    8.86968   MPKI: 12.2439
BTB BRANCH_DIRECT_JUMP	ACCESS:    1623386  HIT:    1623233  MISS:        153
BTB BRANCH_INDIRECT	ACCESS:   12401141  HIT:   11630273  MISS:     770868
BTB BRANCH_CONDITIONAL	ACCESS:    3940144  HIT:    3939912  MISS:        232
BTB BRANCH_DIRECT_CALL	ACCESS:    4362301  HIT:    4361953  MISS:        348
BTB BRANCH_INDIRECT_CALL	ACCESS:     459562  HIT:     405839  MISS:      53723
BTB BRANCH_RETURN	ACCESS:    4821864  HIT:    3198412  MISS:    1623452
BTB BRANCH_OTHER ACCESS:          0  HIT:          0  MISS:          0

L2C TOTAL     ACCESS:    5990564  HIT:    5990215  MISS:        349  HIT %:    99.9942  MISS %: 0.00582583   MPKI: 0.001745
L2C LOAD      ACCESS:    5989968  HIT:    5989728  MISS:        240  HIT %:     99.996  MISS %:  0.0040067   MPKI: 0.0012
L2C DATA LOAD MPKI: 0.000205
L2C INSTRUCTION LOAD MPKI: 0.000995
L2C RFO       ACCESS:         78  HIT:         69  MISS:          9  HIT %:    88.4615  MISS %:    11.5385   MPKI: 4.5e-05
L2C PREFETCH  ACCESS:        282  HIT:        195  MISS:         87  HIT %:    69.1489  MISS %:    30.8511   MPKI: 0.000435
AGUS PREFETCH L1 MISS: 0
L2C DATA PREFETCH MPKI: 0.000435
L2C INSTRUCTION PREFETCH MPKI: 0
L2C WRITEBACK ACCESS:        230  HIT:        221  MISS:          9  HIT %:     96.087  MISS %:    3.91304   MPKI: 4.5e-05
L2C LOAD TRANSLATION ACCESS:          6  HIT:          2  MISS:          4  HIT %:    33.3333  MISS %:    66.6667   MPKI: 2e-05
L2C PREFETCH  REQUESTED:        282  ISSUED:        282  USEFUL:         53  USELESS:         62
L2C USEFUL LOAD PREFETCHES:         53 PREFETCH ISSUED TO LOWER LEVEL:         87  ACCURACY: 60.9195
L2C TIMELY PREFETCHES:         53 LATE PREFETCHES: 0 DROPPED PREFETCHES: 0
L2C PREFETCHES SAME FILL-ORIGIN LEVEL: 87 DIFFERENT FILL-ORIGIN LEVEL: 0
L2C AVERAGE MISS LATENCY: 69.1662 cycles
L2C RQ	ACCESS:    5990052	FORWARD:          0	MERGED:          0	TO_CACHE:    5990052
L2C WQ	ACCESS:        230	FORWARD:          0	MERGED:          0	TO_CACHE:        230
L2C PQ	ACCESS:        282	FORWARD:          0	MERGED:          0	TO_CACHE:        282

L2C Instructions Evicting Data 161
L2C Translations Evicting Data 3
L2C Data Evicting Data 111
L2C Instructions Evicting Instructions 28
L2C Translations Evicting Instructions 1
L2C Data Evicting Instructions 22
L2C Instructions Evicting Translations 10
L2C Translations Evicting Translations 0
L2C Data Evicting Translations 4
L2C Dense regions hint from L2: 0
PSCL5 TOTAL     ACCESS:          5  HIT:          5  MISS:          0  HIT %:        100  MISS %:          0   MPKI: 0
PSCL5 LOAD TRANSLATION ACCESS:          5  HIT:          5  MISS:          0  HIT %:        100  MISS %:          0   MPKI: 0
PSCL5 PREFETCH  REQUESTED:          0  ISSUED:          0  USEFUL:          0  USELESS:          0
PSCL5 USEFUL LOAD PREFETCHES:          0 PREFETCH ISSUED TO LOWER LEVEL:          0  ACCURACY: -nan
PSCL5 TIMELY PREFETCHES:          0 LATE PREFETCHES: 0 DROPPED PREFETCHES: 0
PSCL5 PREFETCHES SAME FILL-ORIGIN LEVEL: 0 DIFFERENT FILL-ORIGIN LEVEL: 0

PSCL4 TOTAL     ACCESS:          5  HIT:          5  MISS:          0  HIT %:        100  MISS %:          0   MPKI: 0
PSCL4 LOAD TRANSLATION ACCESS:          5  HIT:          5  MISS:          0  HIT %:        100  MISS %:          0   MPKI: 0
PSCL4 PREFETCH  REQUESTED:          0  ISSUED:          0  USEFUL:          0  USELESS:          0
PSCL4 USEFUL LOAD PREFETCHES:          0 PREFETCH ISSUED TO LOWER LEVEL:          0  ACCURACY: -nan
PSCL4 TIMELY PREFETCHES:          0 LATE PREFETCHES: 0 DROPPED PREFETCHES: 0
PSCL4 PREFETCHES SAME FILL-ORIGIN LEVEL: 0 DIFFERENT FILL-ORIGIN LEVEL: 0

PSCL3 TOTAL     ACCESS:          5  HIT:          5  MISS:          0  HIT %:        100  MISS %:          0   MPKI: 0
PSCL3 LOAD TRANSLATION ACCESS:          5  HIT:          5  MISS:          0  HIT %:        100  MISS %:          0   MPKI: 0
PSCL3 PREFETCH  REQUESTED:          0  ISSUED:          0  USEFUL:          0  USELESS:          0
PSCL3 USEFUL LOAD PREFETCHES:          0 PREFETCH ISSUED TO LOWER LEVEL:          0  ACCURACY: -nan
PSCL3 TIMELY PREFETCHES:          0 LATE PREFETCHES: 0 DROPPED PREFETCHES: 0
PSCL3 PREFETCHES SAME FILL-ORIGIN LEVEL: 0 DIFFERENT FILL-ORIGIN LEVEL: 0

PSCL2 TOTAL     ACCESS:          5  HIT:          4  MISS:          1  HIT %:         80  MISS %:         20   MPKI: 5e-06
PSCL2 LOAD TRANSLATION ACCESS:          5  HIT:          4  MISS:          1  HIT %:         80  MISS %:         20   MPKI: 5e-06
PSCL2 PREFETCH  REQUESTED:          0  ISSUED:          0  USEFUL:          0  USELESS:          0
PSCL2 USEFUL LOAD PREFETCHES:          0 PREFETCH ISSUED TO LOWER LEVEL:          0  ACCURACY: -nan
PSCL2 TIMELY PREFETCHES:          0 LATE PREFETCHES: 0 DROPPED PREFETCHES: 0
PSCL2 PREFETCHES SAME FILL-ORIGIN LEVEL: 0 DIFFERENT FILL-ORIGIN LEVEL: 0

LLC TOTAL     ACCESS:        475  HIT:        392  MISS:         83  HIT %:    82.5263  MISS %:    17.4737   MPKI: 0.000415
LLC LOAD      ACCESS:        240  HIT:        211  MISS:         29  HIT %:    87.9167  MISS %:    12.0833   MPKI: 0.000145
LLC RFO       ACCESS:          9  HIT:          6  MISS:          3  HIT %:    66.6667  MISS %:    33.3333   MPKI: 1.5e-05
LLC PREFETCH  ACCESS:         87  HIT:         42  MISS:         45  HIT %:    48.2759  MISS %:    51.7241   MPKI: 0.000225
AGUS PREFETCH L1 MISS: 0
LLC WRITEBACK ACCESS:        135  HIT:        131  MISS:          4  HIT %:     97.037  MISS %:    2.96296   MPKI: 2e-05
LLC LOAD TRANSLATION ACCESS:          4  HIT:          2  MISS:          2  HIT %:         50  MISS %:         50   MPKI: 1e-05
LLC PREFETCH  REQUESTED:          0  ISSUED:          0  USEFUL:          1  USELESS:          7
LLC USEFUL LOAD PREFETCHES:          1 PREFETCH ISSUED TO LOWER LEVEL:         45  ACCURACY: 2.22222
LLC TIMELY PREFETCHES:          1 LATE PREFETCHES: 0 DROPPED PREFETCHES: 0
LLC PREFETCHES SAME FILL-ORIGIN LEVEL: 0 DIFFERENT FILL-ORIGIN LEVEL: 0
LLC AVERAGE MISS LATENCY: 167.94 cycles
LLC RQ	ACCESS:        253	FORWARD:          0	MERGED:          0	TO_CACHE:        253
LLC WQ	ACCESS:        135	FORWARD:          0	MERGED:          0	TO_CACHE:        135
LLC PQ	ACCESS:         87	FORWARD:          0	MERGED:          0	TO_CACHE:         87

LLC Dense regions hint to LLC: 0

RAW hits: 3240376
Loads Generated: 48073854
Loads sent to L1D: 44833477
Stores Generated: 32718439
Stores sent to L1D: 32718443
Major fault: 0 Minor fault: 1999
Allocated PAGES: 1999
[Bingo] PHT Access: 58
[Bingo] PHT Hit PC+Addr: 17
[Bingo] PHT Hit PC+Offs: 22
[Bingo] PHT Miss: 19
[Bingo] Prefetch PC+Addr: 0
[Bingo] Prefetch PC+Offs: 0
[Bingo] Useful PC+Addr: 0
[Bingo] Useful PC+Offs: 0
[Bingo] Useless PC+Addr: 0
[Bingo] Useless PC+Offs: 0
[Bingo] L1 Prefetch per Region: 0
[Bingo] L2 Prefetch per Region: 8.20513
[Bingo] L3 Prefetch per Region: 0
[Bingo] No Prefetch per Region: 23.7949
[Bingo] Number of Voters Mean: 10.8182
[Bingo] Number of Voters SD: 65.527
PHT read accesses: 313
PHT write accesses: 36
AT read accesses: 348
AT write accesses: 365
FT read accesses: 217
FT write accesses: 58
PS read accesses: 82
PS write accesses: 39
PHT tag read accesses: 1616
PHT tag write accesses: 53
AT tag read accesses: 14092
AT tag write accesses: 387
FT tag read accesses: 10030
FT tag write accesses: 188
PS tag read accesses: 8236
PS tag write accesses: 121

DRAM Statistics
 CHANNEL 0
 RQ ROW_BUFFER_HIT:         11  ROW_BUFFER_MISS:         68
 DBUS_CONGESTED:          0
 WQ ROW_BUFFER_HIT:          7  ROW_BUFFER_MISS:         53  FULL:          0

 AVG_CONGESTED_CYCLE: -
 All warmup complete: 2
Channel 0 Bank busy for read cycles: 0
Channel 0 Bank busy for write cycles: 0
Channel 0
Rank 0
0banks busy for read cycles: 307715551
0banks busy for write cycles: 30
1banks busy for read cycles: 5057
1banks busy for write cycles: 3475
2banks busy for read cycles: 725
2banks busy for write cycles: 971
3banks busy for read cycles: 587
3banks busy for write cycles: 316
4banks busy for read cycles: 498
4banks busy for write cycles: 708
5banks busy for read cycles: 98
5banks busy for write cycles: 0
6banks busy for read cycles: 0
6banks busy for write cycles: 0
7banks busy for read cycles: 0
7banks busy for write cycles: 0
8banks busy for read cycles: 0
8banks busy for write cycles: 0

CPU 0 Branch Prediction Accuracy: 99.9167% MPKI: 0.130515 Average ROB Occupancy at Mispredict: 16.6266
Branch types
NOT_BRANCH: 168676427 84.3382%
BRANCH_DIRECT_JUMP: 1623386 0.811693%
BRANCH_INDIRECT: 12401141 6.20057%
BRANCH_CONDITIONAL: 7655294 3.82765%
BRANCH_DIRECT_CALL: 4362301 2.18115%
BRANCH_INDIRECT_CALL: 459562 0.229781%
BRANCH_RETURN: 4821864 2.41093%
BRANCH_OTHER: 0 0%

DRAM PAGES: 1048576
Allocated PAGES: 1999
