
*** ChampSim Multicore Out-of-Order Simulator ***

Warmup Instructions: 50000000
Simulation Instructions: 200000000
Number of CPUs: 1
LLC sets: 2048
LLC ways: 16
Off-chip DRAM Size: 4096 MB Channels: 1 Width: 64-bit Data Rate: 6400 MT/s
CPU 0 runs traces/spec2k17/server_018.champsimtrace.xz
.xz
BTB has LRU replacement policy
ITLB has LRU replacement policy
DTLB has LRU replacement policy
STLB has LRU replacement policy
L1I has LRU replacement policy
L1D has LRU replacement policy
Bingo PHT WAYS: 16 and PHT_SIZE: 16384
Initialize SRRIP state for L2C
Initialize DRRIP state for LLC
Heartbeat CPU 0 instructions: 10000001 cycles: 2937642 heartbeat IPC: 3.40409 cumulative IPC: 3.40409 (Simulation time: 0 hr 0 min 38 sec) 
Heartbeat CPU 0 instructions: 20000000 cycles: 5873869 heartbeat IPC: 3.40573 cumulative IPC: 3.40491 (Simulation time: 0 hr 1 min 19 sec) 
Heartbeat CPU 0 instructions: 30000000 cycles: 8792030 heartbeat IPC: 3.42682 cumulative IPC: 3.41218 (Simulation time: 0 hr 2 min 0 sec) 
Heartbeat CPU 0 instructions: 40000001 cycles: 11653876 heartbeat IPC: 3.49425 cumulative IPC: 3.43233 (Simulation time: 0 hr 2 min 35 sec) 
Heartbeat CPU 0 instructions: 50000001 cycles: 14587747 heartbeat IPC: 3.40847 cumulative IPC: 3.42753 (Simulation time: 0 hr 3 min 15 sec) 

Warmup complete CPU 0 instructions: 50000001 cycles: 14587747 (Simulation time: 0 hr 3 min 15 sec) 

Heartbeat CPU 0 instructions: 60000001 cycles: 34429663 heartbeat IPC: 0.503984 cumulative IPC: 0.503984 (Simulation time: 0 hr 4 min 20 sec) 
Heartbeat CPU 0 instructions: 70000000 cycles: 54011665 heartbeat IPC: 0.510673 cumulative IPC: 0.507306 (Simulation time: 0 hr 5 min 27 sec) 
Heartbeat CPU 0 instructions: 80000002 cycles: 73685173 heartbeat IPC: 0.508298 cumulative IPC: 0.507636 (Simulation time: 0 hr 6 min 53 sec) 
Heartbeat CPU 0 instructions: 90000000 cycles: 93329349 heartbeat IPC: 0.509057 cumulative IPC: 0.507991 (Simulation time: 0 hr 8 min 0 sec) 
Heartbeat CPU 0 instructions: 100000001 cycles: 112197230 heartbeat IPC: 0.530001 cumulative IPC: 0.512245 (Simulation time: 0 hr 9 min 4 sec) 
*** Reached end of trace for Core: 0 Repeating trace: traces/spec2k17/server_018.champsimtrace.xz
Heartbeat CPU 0 instructions: 110000000 cycles: 131029894 heartbeat IPC: 0.530992 cumulative IPC: 0.515277 (Simulation time: 0 hr 10 min 9 sec) 
Heartbeat CPU 0 instructions: 120000000 cycles: 149859743 heartbeat IPC: 0.531072 cumulative IPC: 0.517476 (Simulation time: 0 hr 11 min 10 sec) 
Heartbeat CPU 0 instructions: 130000000 cycles: 168674557 heartbeat IPC: 0.531496 cumulative IPC: 0.519188 (Simulation time: 0 hr 12 min 15 sec) 
Heartbeat CPU 0 instructions: 140000003 cycles: 192699526 heartbeat IPC: 0.416234 cumulative IPC: 0.505301 (Simulation time: 0 hr 13 min 22 sec) 
Heartbeat CPU 0 instructions: 150000001 cycles: 216005702 heartbeat IPC: 0.429071 cumulative IPC: 0.49648 (Simulation time: 0 hr 14 min 32 sec) 
Heartbeat CPU 0 instructions: 160000001 cycles: 235843947 heartbeat IPC: 0.504077 cumulative IPC: 0.497161 (Simulation time: 0 hr 15 min 41 sec) 
Heartbeat CPU 0 instructions: 170000000 cycles: 255454359 heartbeat IPC: 0.509933 cumulative IPC: 0.498201 (Simulation time: 0 hr 16 min 49 sec) 
Heartbeat CPU 0 instructions: 180000000 cycles: 274655418 heartbeat IPC: 0.520805 cumulative IPC: 0.49987 (Simulation time: 0 hr 17 min 56 sec) 
Heartbeat CPU 0 instructions: 190000001 cycles: 293712823 heartbeat IPC: 0.52473 cumulative IPC: 0.501567 (Simulation time: 0 hr 19 min 0 sec) 
Heartbeat CPU 0 instructions: 200000001 cycles: 312614595 heartbeat IPC: 0.529051 cumulative IPC: 0.50331 (Simulation time: 0 hr 20 min 7 sec) 
Heartbeat CPU 0 instructions: 210000001 cycles: 331450155 heartbeat IPC: 0.530911 cumulative IPC: 0.504951 (Simulation time: 0 hr 21 min 17 sec) 
*** Reached end of trace for Core: 0 Repeating trace: traces/spec2k17/server_018.champsimtrace.xz
Heartbeat CPU 0 instructions: 220000000 cycles: 350292029 heartbeat IPC: 0.530733 cumulative IPC: 0.506398 (Simulation time: 0 hr 22 min 23 sec) 
Heartbeat CPU 0 instructions: 230000003 cycles: 369079101 heartbeat IPC: 0.532281 cumulative IPC: 0.50777 (Simulation time: 0 hr 23 min 32 sec) 
Heartbeat CPU 0 instructions: 240000000 cycles: 387937840 heartbeat IPC: 0.530258 cumulative IPC: 0.508906 (Simulation time: 0 hr 24 min 41 sec) 
Heartbeat CPU 0 instructions: 250000002 cycles: 414450937 heartbeat IPC: 0.377172 cumulative IPC: 0.500171 (Simulation time: 0 hr 25 min 52 sec) 
Finished CPU 0 instructions: 200000001 cycles: 399863190 cumulative IPC: 0.500171 (Simulation time: 0 hr 25 min 52 sec) 

ChampSim completed all CPUs

Region of Interest Statistics

CPU 0 cumulative IPC: 0.500171 instructions: 200000001 cycles: 399863190
ITLB TOTAL     ACCESS:   33519473  HIT:   32103439  MISS:    1416034  HIT %:    95.7755  MISS %:    4.22451   MPKI: 7.08017
ITLB LOAD TRANSLATION ACCESS:   33519473  HIT:   32103439  MISS:    1416034  HIT %:    95.7755  MISS %:    4.22451   MPKI: 7.08017
ITLB PREFETCH  REQUESTED:          0  ISSUED:          0  USEFUL:          0  USELESS:          0
ITLB USEFUL LOAD PREFETCHES:          0 PREFETCH ISSUED TO LOWER LEVEL:          0  ACCURACY: -nan
ITLB TIMELY PREFETCHES:          0 LATE PREFETCHES: 0 DROPPED PREFETCHES: 0
ITLB PREFETCHES SAME FILL-ORIGIN LEVEL: 0 DIFFERENT FILL-ORIGIN LEVEL: 0
ITLB AVERAGE MISS LATENCY: 9.40392 cycles
ITLB RQ	ACCESS:   40192217	FORWARD:          0	MERGED:    6216549	TO_CACHE:   33975668

DTLB TOTAL     ACCESS:   39300961  HIT:   37694474  MISS:    1606487  HIT %:    95.9123  MISS %:    4.08765   MPKI: 8.03243
DTLB LOAD TRANSLATION ACCESS:   39300961  HIT:   37694474  MISS:    1606487  HIT %:    95.9123  MISS %:    4.08765   MPKI: 8.03243
DTLB PREFETCH  REQUESTED:          0  ISSUED:          0  USEFUL:          0  USELESS:          0
DTLB USEFUL LOAD PREFETCHES:          0 PREFETCH ISSUED TO LOWER LEVEL:          0  ACCURACY: -nan
DTLB TIMELY PREFETCHES:          0 LATE PREFETCHES: 0 DROPPED PREFETCHES: 0
DTLB PREFETCHES SAME FILL-ORIGIN LEVEL: 0 DIFFERENT FILL-ORIGIN LEVEL: 0
DTLB AVERAGE MISS LATENCY: 17.5721 cycles
DTLB RQ	ACCESS:   59162790	FORWARD:          0	MERGED:   19480743	TO_CACHE:   39682047

STLB TOTAL     ACCESS:    3022520  HIT:    2875542  MISS:     146978  HIT %:    95.1372  MISS %:    4.86276   MPKI: 0.73489
STLB LOAD TRANSLATION ACCESS:    3022520  HIT:    2875542  MISS:     146978  HIT %:    95.1372  MISS %:    4.86276   MPKI: 0.73489
STLB PREFETCH  REQUESTED:          0  ISSUED:          0  USEFUL:          0  USELESS:          0
STLB USEFUL LOAD PREFETCHES:          0 PREFETCH ISSUED TO LOWER LEVEL:          0  ACCURACY: -nan
STLB TIMELY PREFETCHES:          0 LATE PREFETCHES: 0 DROPPED PREFETCHES: 0
STLB PREFETCHES SAME FILL-ORIGIN LEVEL: 0 DIFFERENT FILL-ORIGIN LEVEL: 0
STLB AVERAGE MISS LATENCY: 97.4212 cycles
STLB RQ	ACCESS:    3022520	FORWARD:          0	MERGED:          0	TO_CACHE:    3022520

STLB Hit, L1D data hit: 0
STLB Hit, L2C data hit: 0
STLB Hit, LLC data hit: 0
STLB Hit, LLC data miss: 0
STLB STLB hints to L2: 0
L1D TOTAL     ACCESS:   47384362  HIT:   40784458  MISS:    6599904  HIT %:    86.0716  MISS %:    13.9284   MPKI: 32.9995
L1D LOAD      ACCESS:   26404747  HIT:   23220252  MISS:    3184495  HIT %:    87.9397  MISS %:    12.0603   MPKI: 15.9225
L1D RFO       ACCESS:   20979615  HIT:   17564206  MISS:    3415409  HIT %:    83.7203  MISS %:    16.2797   MPKI: 17.077
L1D PREFETCH  REQUESTED:          0  ISSUED:          0  USEFUL:          0  USELESS:          0
L1D USEFUL LOAD PREFETCHES:          0 PREFETCH ISSUED TO LOWER LEVEL:          0  ACCURACY: -nan
L1D TIMELY PREFETCHES:          0 LATE PREFETCHES: 0 DROPPED PREFETCHES: 0
L1D PREFETCHES SAME FILL-ORIGIN LEVEL: 0 DIFFERENT FILL-ORIGIN LEVEL: 0
L1D AVERAGE MISS LATENCY: 150.578 cycles
L1D RQ	ACCESS:   44697058	FORWARD:          0	MERGED:   17554337	TO_CACHE:   26885946
L1D WQ	ACCESS:   32470506	FORWARD:     256775	MERGED:     193662	TO_CACHE:   32276844

L1D UNIQUE REGIONS ACCESSED: 0
L1D REGIONS CONFLICTS: 0
L1D Cross Page Prefetch Requests: 0
L1D Same Page Prefetch Requests: 0
L1D ROI Sum of L1D PQ occupancy: 0
L1D PREFETCHES PUSHED FROM L2C: 0
L1I TOTAL     ACCESS:   37714171  HIT:   29256220  MISS:    8457951  HIT %:    77.5735  MISS %:    22.4265   MPKI: 42.2898
L1I LOAD      ACCESS:   37714171  HIT:   29256220  MISS:    8457951  HIT %:    77.5735  MISS %:    22.4265   MPKI: 42.2898
L1I PREFETCH  REQUESTED:          0  ISSUED:          0  USEFUL:          0  USELESS:          0
L1I USEFUL LOAD PREFETCHES:          0 PREFETCH ISSUED TO LOWER LEVEL:          0  ACCURACY: -nan
L1I TIMELY PREFETCHES:          0 LATE PREFETCHES: 0 DROPPED PREFETCHES: 0
L1I PREFETCHES SAME FILL-ORIGIN LEVEL: 0 DIFFERENT FILL-ORIGIN LEVEL: 0
L1I AVERAGE MISS LATENCY: 17.1406 cycles
L1I RQ	ACCESS:   58230296	FORWARD:          0	MERGED:   18038079	TO_CACHE:   40192217

BTB TOTAL     ACCESS:   25716645  HIT:   24056120  MISS:    1660525  HIT %:     93.543  MISS %:      6.457   MPKI: 8.30262
BTB BRANCH_DIRECT_JUMP	ACCESS:    1725252  HIT:    1715409  MISS:       9843
BTB BRANCH_INDIRECT	ACCESS:    9825525  HIT:    9169775  MISS:     655750
BTB BRANCH_CONDITIONAL	ACCESS:    7516535  HIT:    7503100  MISS:      13435
BTB BRANCH_DIRECT_CALL	ACCESS:    2628849  HIT:    2596393  MISS:      32456
BTB BRANCH_INDIRECT_CALL	ACCESS:     695837  HIT:     593013  MISS:     102824
BTB BRANCH_RETURN	ACCESS:    3324647  HIT:    2478430  MISS:     846217
BTB BRANCH_OTHER ACCESS:          0  HIT:          0  MISS:          0

L2C TOTAL     ACCESS:   21965991  HIT:   14910957  MISS:    7055034  HIT %:     67.882  MISS %:     32.118   MPKI: 35.2752
L2C LOAD      ACCESS:   11642255  HIT:   10066569  MISS:    1575686  HIT %:    86.4658  MISS %:    13.5342   MPKI: 7.87843
L2C DATA LOAD MPKI: 4.90218
L2C INSTRUCTION LOAD MPKI: 2.97625
L2C RFO       ACCESS:    3415394  HIT:     237472  MISS:    3177922  HIT %:    6.95299  MISS %:     93.047   MPKI: 15.8896
L2C PREFETCH  ACCESS:    2515832  HIT:     516644  MISS:    1999188  HIT %:    20.5357  MISS %:    79.4643   MPKI: 9.99594
AGUS PREFETCH L1 MISS: 0
L2C DATA PREFETCH MPKI: 9.99594
L2C INSTRUCTION PREFETCH MPKI: 0
L2C WRITEBACK ACCESS:    4217757  HIT:    4012490  MISS:     205267  HIT %:    95.1333  MISS %:    4.86673   MPKI: 1.02633
L2C LOAD TRANSLATION ACCESS:     174753  HIT:      77782  MISS:      96971  HIT %:    44.5097  MISS %:    55.4903   MPKI: 0.484855
L2C PREFETCH  REQUESTED:    2859076  ISSUED:    2859076  USEFUL:    1608786  USELESS:     390361
L2C USEFUL LOAD PREFETCHES:    1608786 PREFETCH ISSUED TO LOWER LEVEL:    2170916  ACCURACY: 74.1063
L2C TIMELY PREFETCHES:    1608786 LATE PREFETCHES: 171728 DROPPED PREFETCHES: 0
L2C PREFETCHES SAME FILL-ORIGIN LEVEL: 2170916 DIFFERENT FILL-ORIGIN LEVEL: 0
L2C AVERAGE MISS LATENCY: 182.243 cycles
L2C RQ	ACCESS:   15232609	FORWARD:          0	MERGED:          0	TO_CACHE:   15232402
L2C WQ	ACCESS:    4217757	FORWARD:        207	MERGED:          0	TO_CACHE:    4217757
L2C PQ	ACCESS:    2859076	FORWARD:          0	MERGED:         25	TO_CACHE:    2859051

L2C Instructions Evicting Data 530276
L2C Translations Evicting Data 87475
L2C Data Evicting Data 5557443
L2C Instructions Evicting Instructions 56497
L2C Translations Evicting Instructions 8073
L2C Data Evicting Instructions 514792
L2C Instructions Evicting Translations 8477
L2C Translations Evicting Translations 1423
L2C Data Evicting Translations 85311
L2C Dense regions hint from L2: 0
PSCL5 TOTAL     ACCESS:     146978  HIT:     146978  MISS:          0  HIT %:        100  MISS %:          0   MPKI: 0
PSCL5 LOAD TRANSLATION ACCESS:     146978  HIT:     146978  MISS:          0  HIT %:        100  MISS %:          0   MPKI: 0
PSCL5 PREFETCH  REQUESTED:          0  ISSUED:          0  USEFUL:          0  USELESS:          0
PSCL5 USEFUL LOAD PREFETCHES:          0 PREFETCH ISSUED TO LOWER LEVEL:          0  ACCURACY: -nan
PSCL5 TIMELY PREFETCHES:          0 LATE PREFETCHES: 0 DROPPED PREFETCHES: 0
PSCL5 PREFETCHES SAME FILL-ORIGIN LEVEL: 0 DIFFERENT FILL-ORIGIN LEVEL: 0

PSCL4 TOTAL     ACCESS:     140456  HIT:     140070  MISS:        386  HIT %:    99.7252  MISS %:   0.274819   MPKI: 0.00193
PSCL4 LOAD TRANSLATION ACCESS:     140456  HIT:     140070  MISS:        386  HIT %:    99.7252  MISS %:   0.274819   MPKI: 0.00193
PSCL4 PREFETCH  REQUESTED:          0  ISSUED:          0  USEFUL:          0  USELESS:          0
PSCL4 USEFUL LOAD PREFETCHES:          0 PREFETCH ISSUED TO LOWER LEVEL:          0  ACCURACY: -nan
PSCL4 TIMELY PREFETCHES:          0 LATE PREFETCHES: 0 DROPPED PREFETCHES: 0
PSCL4 PREFETCHES SAME FILL-ORIGIN LEVEL: 0 DIFFERENT FILL-ORIGIN LEVEL: 0

PSCL3 TOTAL     ACCESS:     146889  HIT:     146495  MISS:        394  HIT %:    99.7318  MISS %:    0.26823   MPKI: 0.00197
PSCL3 LOAD TRANSLATION ACCESS:     146889  HIT:     146495  MISS:        394  HIT %:    99.7318  MISS %:    0.26823   MPKI: 0.00197
PSCL3 PREFETCH  REQUESTED:          0  ISSUED:          0  USEFUL:          0  USELESS:          0
PSCL3 USEFUL LOAD PREFETCHES:          0 PREFETCH ISSUED TO LOWER LEVEL:          0  ACCURACY: -nan
PSCL3 TIMELY PREFETCHES:          0 LATE PREFETCHES: 0 DROPPED PREFETCHES: 0
PSCL3 PREFETCHES SAME FILL-ORIGIN LEVEL: 0 DIFFERENT FILL-ORIGIN LEVEL: 0

PSCL2 TOTAL     ACCESS:     146978  HIT:     119955  MISS:      27023  HIT %:    81.6143  MISS %:    18.3857   MPKI: 0.135115
PSCL2 LOAD TRANSLATION ACCESS:     146978  HIT:     119955  MISS:      27023  HIT %:    81.6143  MISS %:    18.3857   MPKI: 0.135115
PSCL2 PREFETCH  REQUESTED:          0  ISSUED:          0  USEFUL:          0  USELESS:          0
PSCL2 USEFUL LOAD PREFETCHES:          0 PREFETCH ISSUED TO LOWER LEVEL:          0  ACCURACY: -nan
PSCL2 TIMELY PREFETCHES:          0 LATE PREFETCHES: 0 DROPPED PREFETCHES: 0
PSCL2 PREFETCHES SAME FILL-ORIGIN LEVEL: 0 DIFFERENT FILL-ORIGIN LEVEL: 0

LLC TOTAL     ACCESS:   10823610  HIT:    4809202  MISS:    6014408  HIT %:    44.4325  MISS %:    55.5675   MPKI: 30.072
LLC LOAD      ACCESS:    1404177  HIT:     959296  MISS:     444881  HIT %:    68.3173  MISS %:    31.6827   MPKI: 2.2244
LLC RFO       ACCESS:    3177668  HIT:     699428  MISS:    2478240  HIT %:    22.0107  MISS %:    77.9893   MPKI: 12.3912
LLC PREFETCH  ACCESS:    2170913  HIT:     829442  MISS:    1341471  HIT %:    38.2071  MISS %:    61.7929   MPKI: 6.70735
AGUS PREFETCH L1 MISS: 0
LLC WRITEBACK ACCESS:    3973881  HIT:    2256950  MISS:    1716931  HIT %:    56.7946  MISS %:    43.2054   MPKI: 8.58465
LLC LOAD TRANSLATION ACCESS:      96971  HIT:      64086  MISS:      32885  HIT %:    66.0878  MISS %:    33.9122   MPKI: 0.164425
LLC PREFETCH  REQUESTED:          0  ISSUED:          0  USEFUL:      15467  USELESS:    1332525
LLC USEFUL LOAD PREFETCHES:      15467 PREFETCH ISSUED TO LOWER LEVEL:    1341471  ACCURACY: 1.15299
LLC TIMELY PREFETCHES:      15467 LATE PREFETCHES: 0 DROPPED PREFETCHES: 0
LLC PREFETCHES SAME FILL-ORIGIN LEVEL: 0 DIFFERENT FILL-ORIGIN LEVEL: 0
LLC AVERAGE MISS LATENCY: 182.115 cycles
LLC RQ	ACCESS:    4678851	FORWARD:          0	MERGED:          0	TO_CACHE:    4678816
LLC WQ	ACCESS:    3973881	FORWARD:         38	MERGED:          0	TO_CACHE:    3973881
LLC PQ	ACCESS:    2170916	FORWARD:          0	MERGED:          0	TO_CACHE:    2170913

LLC Dense regions hint to LLC: 0

RAW hits: 2153341
Loads Generated: 46850403
Loads sent to L1D: 44697058
Stores Generated: 32470486
Stores sent to L1D: 32470506
Major fault: 0 Minor fault: 22612
Allocated PAGES: 22612
[Bingo] PHT Access: 552557
[Bingo] PHT Hit PC+Addr: 223533
[Bingo] PHT Hit PC+Offs: 267666
[Bingo] PHT Miss: 61358
[Bingo] Prefetch PC+Addr: 0
[Bingo] Prefetch PC+Offs: 0
[Bingo] Useful PC+Addr: 0
[Bingo] Useful PC+Offs: 0
[Bingo] Useless PC+Addr: 0
[Bingo] Useless PC+Offs: 0
[Bingo] L1 Prefetch per Region: 0
[Bingo] L2 Prefetch per Region: 7.09207
[Bingo] L3 Prefetch per Region: 0
[Bingo] No Prefetch per Region: 24.9079
[Bingo] Number of Voters Mean: 13.5095
[Bingo] Number of Voters SD: 9.67335
PHT read accesses: 5790673
PHT write accesses: 355775
AT read accesses: 2798128
AT write accesses: 2924148
FT read accesses: 1286103
FT write accesses: 552557
PS read accesses: 1175243
PS write accesses: 491199
PHT tag read accesses: 14782859
PHT tag write accesses: 579308
AT tag read accesses: 179061148
AT tag write accesses: 3153914
FT tag read accesses: 148305972
FT tag write accesses: 1419490
PS tag read accesses: 68835892
PS tag write accesses: 1656713

DRAM Statistics
 CHANNEL 0
 RQ ROW_BUFFER_HIT:    2236806  ROW_BUFFER_MISS:    2060251
 DBUS_CONGESTED:       2843
 WQ ROW_BUFFER_HIT:     573144  ROW_BUFFER_MISS:    2232808  FULL:      59284

 AVG_CONGESTED_CYCLE: 4
 All warmup complete: 2
Channel 0 Bank busy for read cycles: 0
Channel 0 Bank busy for write cycles: 0
Channel 0
Rank 0
0banks busy for read cycles: 177055211
0banks busy for write cycles: 229345
1banks busy for read cycles: 32064908
1banks busy for write cycles: 28874155
2banks busy for read cycles: 17976658
2banks busy for write cycles: 15904994
3banks busy for read cycles: 23553321
3banks busy for write cycles: 9678796
4banks busy for read cycles: 4466660
4banks busy for write cycles: 5890211
5banks busy for read cycles: 2924215
5banks busy for write cycles: 4251794
6banks busy for read cycles: 3461644
6banks busy for write cycles: 3763783
7banks busy for read cycles: 5630270
7banks busy for write cycles: 5818850
8banks busy for read cycles: 24873934
8banks busy for write cycles: 33444442

CPU 0 Branch Prediction Accuracy: 99.9405% MPKI: 0.09271 Average ROB Occupancy at Mispredict: 86.3823
Branch types
NOT_BRANCH: 168823607 84.4118%
BRANCH_DIRECT_JUMP: 1725252 0.862626%
BRANCH_INDIRECT: 9825525 4.91276%
BRANCH_CONDITIONAL: 12976221 6.48811%
BRANCH_DIRECT_CALL: 2628849 1.31442%
BRANCH_INDIRECT_CALL: 695837 0.347918%
BRANCH_RETURN: 3324647 1.66232%
BRANCH_OTHER: 0 0%

DRAM PAGES: 1048576
Allocated PAGES: 22612
