
*** ChampSim Multicore Out-of-Order Simulator ***

Warmup Instructions: 50000000
Simulation Instructions: 200000000
Number of CPUs: 1
LLC sets: 2048
LLC ways: 16
Off-chip DRAM Size: 4096 MB Channels: 1 Width: 64-bit Data Rate: 6400 MT/s
CPU 0 runs traces/spec2k17/srv_73.champsimtrace.xz
.xz
BTB has LRU replacement policy
ITLB has LRU replacement policy
DTLB has LRU replacement policy
STLB has LRU replacement policy
L1I has LRU replacement policy
L1D has LRU replacement policy
Bingo PHT WAYS: 16 and PHT_SIZE: 16384
Initialize SRRIP state for L2C
Initialize DRRIP state for LLC
Heartbeat CPU 0 instructions: 10000002 cycles: 2849418 heartbeat IPC: 3.50949 cumulative IPC: 3.50949 (Simulation time: 0 hr 0 min 31 sec) 
Heartbeat CPU 0 instructions: 20000002 cycles: 5691621 heartbeat IPC: 3.5184 cumulative IPC: 3.51394 (Simulation time: 0 hr 1 min 1 sec) 
Heartbeat CPU 0 instructions: 30000001 cycles: 8536432 heartbeat IPC: 3.51517 cumulative IPC: 3.51435 (Simulation time: 0 hr 1 min 32 sec) 
*** Reached end of trace for Core: 0 Repeating trace: traces/spec2k17/srv_73.champsimtrace.xz
Heartbeat CPU 0 instructions: 40000002 cycles: 11379203 heartbeat IPC: 3.51769 cumulative IPC: 3.51518 (Simulation time: 0 hr 2 min 4 sec) 
Heartbeat CPU 0 instructions: 50000003 cycles: 14220987 heartbeat IPC: 3.51892 cumulative IPC: 3.51593 (Simulation time: 0 hr 2 min 37 sec) 

Warmup complete CPU 0 instructions: 50000003 cycles: 14220987 (Simulation time: 0 hr 2 min 37 sec) 

Heartbeat CPU 0 instructions: 60000001 cycles: 47415442 heartbeat IPC: 0.301255 cumulative IPC: 0.301255 (Simulation time: 0 hr 3 min 31 sec) 
*** Reached end of trace for Core: 0 Repeating trace: traces/spec2k17/srv_73.champsimtrace.xz
Heartbeat CPU 0 instructions: 70000003 cycles: 80420937 heartbeat IPC: 0.30298 cumulative IPC: 0.302115 (Simulation time: 0 hr 4 min 30 sec) 
Heartbeat CPU 0 instructions: 80000002 cycles: 113088685 heartbeat IPC: 0.306112 cumulative IPC: 0.303436 (Simulation time: 0 hr 5 min 23 sec) 
Heartbeat CPU 0 instructions: 90000001 cycles: 146215599 heartbeat IPC: 0.301869 cumulative IPC: 0.303043 (Simulation time: 0 hr 6 min 19 sec) 
*** Reached end of trace for Core: 0 Repeating trace: traces/spec2k17/srv_73.champsimtrace.xz
Heartbeat CPU 0 instructions: 100000001 cycles: 179191501 heartbeat IPC: 0.303252 cumulative IPC: 0.303084 (Simulation time: 0 hr 7 min 8 sec) 
Heartbeat CPU 0 instructions: 110000000 cycles: 211862159 heartbeat IPC: 0.306085 cumulative IPC: 0.30358 (Simulation time: 0 hr 7 min 59 sec) 
Heartbeat CPU 0 instructions: 120000000 cycles: 244794357 heartbeat IPC: 0.303654 cumulative IPC: 0.303591 (Simulation time: 0 hr 8 min 50 sec) 
*** Reached end of trace for Core: 0 Repeating trace: traces/spec2k17/srv_73.champsimtrace.xz
Heartbeat CPU 0 instructions: 130000003 cycles: 277810897 heartbeat IPC: 0.302879 cumulative IPC: 0.303502 (Simulation time: 0 hr 9 min 47 sec) 
Heartbeat CPU 0 instructions: 140000000 cycles: 310487312 heartbeat IPC: 0.306031 cumulative IPC: 0.303781 (Simulation time: 0 hr 10 min 42 sec) 
Heartbeat CPU 0 instructions: 150000000 cycles: 343291284 heartbeat IPC: 0.304841 cumulative IPC: 0.303886 (Simulation time: 0 hr 11 min 40 sec) 
*** Reached end of trace for Core: 0 Repeating trace: traces/spec2k17/srv_73.champsimtrace.xz
Heartbeat CPU 0 instructions: 160000001 cycles: 376440925 heartbeat IPC: 0.301662 cumulative IPC: 0.303683 (Simulation time: 0 hr 12 min 38 sec) 
Heartbeat CPU 0 instructions: 170000001 cycles: 409103168 heartbeat IPC: 0.306164 cumulative IPC: 0.303888 (Simulation time: 0 hr 13 min 20 sec) 
Heartbeat CPU 0 instructions: 180000001 cycles: 441731138 heartbeat IPC: 0.306486 cumulative IPC: 0.304086 (Simulation time: 0 hr 13 min 58 sec) 
*** Reached end of trace for Core: 0 Repeating trace: traces/spec2k17/srv_73.champsimtrace.xz
Heartbeat CPU 0 instructions: 190000001 cycles: 474956700 heartbeat IPC: 0.300973 cumulative IPC: 0.303862 (Simulation time: 0 hr 14 min 32 sec) 
Heartbeat CPU 0 instructions: 200000002 cycles: 507547629 heartbeat IPC: 0.306834 cumulative IPC: 0.304058 (Simulation time: 0 hr 15 min 4 sec) 
Heartbeat CPU 0 instructions: 210000000 cycles: 540189424 heartbeat IPC: 0.306356 cumulative IPC: 0.304201 (Simulation time: 0 hr 15 min 34 sec) 
*** Reached end of trace for Core: 0 Repeating trace: traces/spec2k17/srv_73.champsimtrace.xz
Heartbeat CPU 0 instructions: 220000000 cycles: 573365421 heartbeat IPC: 0.301423 cumulative IPC: 0.304036 (Simulation time: 0 hr 16 min 5 sec) 
Heartbeat CPU 0 instructions: 230000000 cycles: 606022945 heartbeat IPC: 0.306208 cumulative IPC: 0.304156 (Simulation time: 0 hr 16 min 35 sec) 
Heartbeat CPU 0 instructions: 240000001 cycles: 638631870 heartbeat IPC: 0.306665 cumulative IPC: 0.304287 (Simulation time: 0 hr 17 min 4 sec) 
Heartbeat CPU 0 instructions: 250000000 cycles: 671781714 heartbeat IPC: 0.301661 cumulative IPC: 0.304154 (Simulation time: 0 hr 17 min 30 sec) 
Finished CPU 0 instructions: 200000000 cycles: 657560731 cumulative IPC: 0.304154 (Simulation time: 0 hr 17 min 30 sec) 

ChampSim completed all CPUs

Region of Interest Statistics

CPU 0 cumulative IPC: 0.304154 instructions: 200000000 cycles: 657560731
ITLB TOTAL     ACCESS:   35559525  HIT:   33345968  MISS:    2213557  HIT %:    93.7751  MISS %:    6.22493   MPKI: 11.0678
ITLB LOAD TRANSLATION ACCESS:   35559525  HIT:   33345968  MISS:    2213557  HIT %:    93.7751  MISS %:    6.22493   MPKI: 11.0678
ITLB PREFETCH  REQUESTED:          0  ISSUED:          0  USEFUL:          0  USELESS:          0
ITLB USEFUL LOAD PREFETCHES:          0 PREFETCH ISSUED TO LOWER LEVEL:          0  ACCURACY: -nan
ITLB TIMELY PREFETCHES:          0 LATE PREFETCHES: 0 DROPPED PREFETCHES: 0
ITLB PREFETCHES SAME FILL-ORIGIN LEVEL: 0 DIFFERENT FILL-ORIGIN LEVEL: 0
ITLB AVERAGE MISS LATENCY: 9.22246 cycles
ITLB RQ	ACCESS:   41798009	FORWARD:          0	MERGED:    5707527	TO_CACHE:   36090482

DTLB TOTAL     ACCESS:   45455754  HIT:   43326888  MISS:    2128866  HIT %:    95.3166  MISS %:    4.68338   MPKI: 10.6443
DTLB LOAD TRANSLATION ACCESS:   45455754  HIT:   43326888  MISS:    2128866  HIT %:    95.3166  MISS %:    4.68338   MPKI: 10.6443
DTLB PREFETCH  REQUESTED:          0  ISSUED:          0  USEFUL:          0  USELESS:          0
DTLB USEFUL LOAD PREFETCHES:          0 PREFETCH ISSUED TO LOWER LEVEL:          0  ACCURACY: -nan
DTLB TIMELY PREFETCHES:          0 LATE PREFETCHES: 0 DROPPED PREFETCHES: 0
DTLB PREFETCHES SAME FILL-ORIGIN LEVEL: 0 DIFFERENT FILL-ORIGIN LEVEL: 0
DTLB AVERAGE MISS LATENCY: 10.8158 cycles
DTLB RQ	ACCESS:   60086707	FORWARD:          0	MERGED:   14574312	TO_CACHE:   45512395

STLB TOTAL     ACCESS:    4342423  HIT:    4278321  MISS:      64102  HIT %:    98.5238  MISS %:    1.47618   MPKI: 0.32051
STLB LOAD TRANSLATION ACCESS:    4342423  HIT:    4278321  MISS:      64102  HIT %:    98.5238  MISS %:    1.47618   MPKI: 0.32051
STLB PREFETCH  REQUESTED:          0  ISSUED:          0  USEFUL:          0  USELESS:          0
STLB USEFUL LOAD PREFETCHES:          0 PREFETCH ISSUED TO LOWER LEVEL:          0  ACCURACY: -nan
STLB TIMELY PREFETCHES:          0 LATE PREFETCHES: 0 DROPPED PREFETCHES: 0
STLB PREFETCHES SAME FILL-ORIGIN LEVEL: 0 DIFFERENT FILL-ORIGIN LEVEL: 0
STLB AVERAGE MISS LATENCY: 67.554 cycles
STLB RQ	ACCESS:    4342423	FORWARD:          0	MERGED:          0	TO_CACHE:    4342423

STLB Hit, L1D data hit: 0
STLB Hit, L2C data hit: 0
STLB Hit, LLC data hit: 0
STLB Hit, LLC data miss: 0
STLB STLB hints to L2: 0
L1D TOTAL     ACCESS:   58172113  HIT:   52795595  MISS:    5376518  HIT %:    90.7576  MISS %:    9.24243   MPKI: 26.8826
L1D LOAD      ACCESS:   33604838  HIT:   29446889  MISS:    4157949  HIT %:    87.6269  MISS %:    12.3731   MPKI: 20.7897
L1D RFO       ACCESS:   24567275  HIT:   23348706  MISS:    1218569  HIT %:    95.0399  MISS %:    4.96013   MPKI: 6.09284
L1D PREFETCH  REQUESTED:          0  ISSUED:          0  USEFUL:          0  USELESS:          0
L1D USEFUL LOAD PREFETCHES:          0 PREFETCH ISSUED TO LOWER LEVEL:          0  ACCURACY: -nan
L1D TIMELY PREFETCHES:          0 LATE PREFETCHES: 0 DROPPED PREFETCHES: 0
L1D PREFETCHES SAME FILL-ORIGIN LEVEL: 0 DIFFERENT FILL-ORIGIN LEVEL: 0
L1D AVERAGE MISS LATENCY: 18.6579 cycles
L1D RQ	ACCESS:   46262163	FORWARD:          0	MERGED:   12214201	TO_CACHE:   33722642
L1D WQ	ACCESS:   26508991	FORWARD:     325320	MERGED:     144926	TO_CACHE:   26364065

L1D UNIQUE REGIONS ACCESSED: 0
L1D REGIONS CONFLICTS: 0
L1D Cross Page Prefetch Requests: 0
L1D Same Page Prefetch Requests: 0
L1D ROI Sum of L1D PQ occupancy: 0
L1D PREFETCHES PUSHED FROM L2C: 0
L1I TOTAL     ACCESS:   40110849  HIT:   28891821  MISS:   11219028  HIT %:    72.0299  MISS %:    27.9701   MPKI: 56.0951
L1I LOAD      ACCESS:   40110849  HIT:   28891821  MISS:   11219028  HIT %:    72.0299  MISS %:    27.9701   MPKI: 56.0951
L1I PREFETCH  REQUESTED:          0  ISSUED:          0  USEFUL:          0  USELESS:          0
L1I USEFUL LOAD PREFETCHES:          0 PREFETCH ISSUED TO LOWER LEVEL:          0  ACCURACY: -nan
L1I TIMELY PREFETCHES:          0 LATE PREFETCHES: 0 DROPPED PREFETCHES: 0
L1I PREFETCHES SAME FILL-ORIGIN LEVEL: 0 DIFFERENT FILL-ORIGIN LEVEL: 0
L1I AVERAGE MISS LATENCY: 16.5484 cycles
L1I RQ	ACCESS:   58505320	FORWARD:          0	MERGED:   16707311	TO_CACHE:   41798009

BTB TOTAL     ACCESS:   30522121  HIT:   18157449  MISS:   12364672  HIT %:    59.4895  MISS %:    40.5105   MPKI: 61.8234
BTB BRANCH_DIRECT_JUMP	ACCESS:    2028930  HIT:    1233064  MISS:     795866
BTB BRANCH_INDIRECT	ACCESS:   12036859  HIT:    7263315  MISS:    4773544
BTB BRANCH_CONDITIONAL	ACCESS:    7346113  HIT:    6103114  MISS:    1242999
BTB BRANCH_DIRECT_CALL	ACCESS:    3832241  HIT:    1828799  MISS:    2003442
BTB BRANCH_INDIRECT_CALL	ACCESS:     722842  HIT:     356547  MISS:     366295
BTB BRANCH_RETURN	ACCESS:    4555136  HIT:    1372610  MISS:    3182526
BTB BRANCH_OTHER ACCESS:          0  HIT:          0  MISS:          0

L2C TOTAL     ACCESS:   21799733  HIT:   20208873  MISS:    1590860  HIT %:    92.7024  MISS %:    7.29761   MPKI: 7.9543
L2C LOAD      ACCESS:   15376964  HIT:   14227359  MISS:    1149605  HIT %:    92.5238  MISS %:    7.47615   MPKI: 5.74803
L2C DATA LOAD MPKI: 1.19477
L2C INSTRUCTION LOAD MPKI: 4.55326
L2C RFO       ACCESS:    1218569  HIT:    1116490  MISS:     102079  HIT %:     91.623  MISS %:    8.37696   MPKI: 0.510395
L2C PREFETCH  ACCESS:    2816408  HIT:    2564583  MISS:     251825  HIT %:    91.0586  MISS %:    8.94135   MPKI: 1.25913
AGUS PREFETCH L1 MISS: 0
L2C DATA PREFETCH MPKI: 1.25913
L2C INSTRUCTION PREFETCH MPKI: 0
L2C WRITEBACK ACCESS:    2291368  HIT:    2263304  MISS:      28064  HIT %:    98.7752  MISS %:    1.22477   MPKI: 0.14032
L2C LOAD TRANSLATION ACCESS:      96424  HIT:      37137  MISS:      59287  HIT %:    38.5143  MISS %:    61.4857   MPKI: 0.296435
L2C PREFETCH  REQUESTED:    2850995  ISSUED:    2850995  USEFUL:     138383  USELESS:     113400
L2C USEFUL LOAD PREFETCHES:     138383 PREFETCH ISSUED TO LOWER LEVEL:     270196  ACCURACY: 51.2158
L2C TIMELY PREFETCHES:     138383 LATE PREFETCHES: 18371 DROPPED PREFETCHES: 0
L2C PREFETCHES SAME FILL-ORIGIN LEVEL: 270196 DIFFERENT FILL-ORIGIN LEVEL: 0
L2C AVERAGE MISS LATENCY: 44.4943 cycles
L2C RQ	ACCESS:   16691967	FORWARD:          0	MERGED:          0	TO_CACHE:   16691955
L2C WQ	ACCESS:    2291368	FORWARD:         14	MERGED:          0	TO_CACHE:    2291368
L2C PQ	ACCESS:    2850995	FORWARD:          0	MERGED:          0	TO_CACHE:    2850993

L2C Instructions Evicting Data 245997
L2C Translations Evicting Data 34170
L2C Data Evicting Data 331063
L2C Instructions Evicting Instructions 644170
L2C Translations Evicting Instructions 20443
L2C Data Evicting Instructions 228273
L2C Instructions Evicting Translations 20485
L2C Translations Evicting Translations 4674
L2C Data Evicting Translations 33521
L2C Dense regions hint from L2: 0
PSCL5 TOTAL     ACCESS:      64102  HIT:      64102  MISS:          0  HIT %:        100  MISS %:          0   MPKI: 0
PSCL5 LOAD TRANSLATION ACCESS:      64102  HIT:      64102  MISS:          0  HIT %:        100  MISS %:          0   MPKI: 0
PSCL5 PREFETCH  REQUESTED:          0  ISSUED:          0  USEFUL:          0  USELESS:          0
PSCL5 USEFUL LOAD PREFETCHES:          0 PREFETCH ISSUED TO LOWER LEVEL:          0  ACCURACY: -nan
PSCL5 TIMELY PREFETCHES:          0 LATE PREFETCHES: 0 DROPPED PREFETCHES: 0
PSCL5 PREFETCHES SAME FILL-ORIGIN LEVEL: 0 DIFFERENT FILL-ORIGIN LEVEL: 0

PSCL4 TOTAL     ACCESS:      62524  HIT:      61751  MISS:        773  HIT %:    98.7637  MISS %:    1.23633   MPKI: 0.003865
PSCL4 LOAD TRANSLATION ACCESS:      62524  HIT:      61751  MISS:        773  HIT %:    98.7637  MISS %:    1.23633   MPKI: 0.003865
PSCL4 PREFETCH  REQUESTED:          0  ISSUED:          0  USEFUL:          0  USELESS:          0
PSCL4 USEFUL LOAD PREFETCHES:          0 PREFETCH ISSUED TO LOWER LEVEL:          0  ACCURACY: -nan
PSCL4 TIMELY PREFETCHES:          0 LATE PREFETCHES: 0 DROPPED PREFETCHES: 0
PSCL4 PREFETCHES SAME FILL-ORIGIN LEVEL: 0 DIFFERENT FILL-ORIGIN LEVEL: 0

PSCL3 TOTAL     ACCESS:      63831  HIT:      63058  MISS:        773  HIT %:     98.789  MISS %:    1.21101   MPKI: 0.003865
PSCL3 LOAD TRANSLATION ACCESS:      63831  HIT:      63058  MISS:        773  HIT %:     98.789  MISS %:    1.21101   MPKI: 0.003865
PSCL3 PREFETCH  REQUESTED:          0  ISSUED:          0  USEFUL:          0  USELESS:          0
PSCL3 USEFUL LOAD PREFETCHES:          0 PREFETCH ISSUED TO LOWER LEVEL:          0  ACCURACY: -nan
PSCL3 TIMELY PREFETCHES:          0 LATE PREFETCHES: 0 DROPPED PREFETCHES: 0
PSCL3 PREFETCHES SAME FILL-ORIGIN LEVEL: 0 DIFFERENT FILL-ORIGIN LEVEL: 0

PSCL2 TOTAL     ACCESS:      64102  HIT:      33326  MISS:      30776  HIT %:     51.989  MISS %:     48.011   MPKI: 0.15388
PSCL2 LOAD TRANSLATION ACCESS:      64102  HIT:      33326  MISS:      30776  HIT %:     51.989  MISS %:     48.011   MPKI: 0.15388
PSCL2 PREFETCH  REQUESTED:          0  ISSUED:          0  USEFUL:          0  USELESS:          0
PSCL2 USEFUL LOAD PREFETCHES:          0 PREFETCH ISSUED TO LOWER LEVEL:          0  ACCURACY: -nan
PSCL2 TIMELY PREFETCHES:          0 LATE PREFETCHES: 0 DROPPED PREFETCHES: 0
PSCL2 PREFETCHES SAME FILL-ORIGIN LEVEL: 0 DIFFERENT FILL-ORIGIN LEVEL: 0

LLC TOTAL     ACCESS:    1708547  HIT:    1542732  MISS:     165815  HIT %:     90.295  MISS %:    9.70503   MPKI: 0.829075
LLC LOAD      ACCESS:    1131278  HIT:    1082680  MISS:      48598  HIT %:    95.7042  MISS %:    4.29585   MPKI: 0.24299
LLC RFO       ACCESS:     102034  HIT:      83960  MISS:      18074  HIT %:    82.2863  MISS %:    17.7137   MPKI: 0.09037
LLC PREFETCH  ACCESS:     270196  HIT:     176857  MISS:      93339  HIT %:    65.4551  MISS %:    34.5449   MPKI: 0.466695
AGUS PREFETCH L1 MISS: 0
LLC WRITEBACK ACCESS:     145752  HIT:     145435  MISS:        317  HIT %:    99.7825  MISS %:   0.217493   MPKI: 0.001585
LLC LOAD TRANSLATION ACCESS:      59287  HIT:      53800  MISS:       5487  HIT %:     90.745  MISS %:    9.25498   MPKI: 0.027435
LLC PREFETCH  REQUESTED:          0  ISSUED:          0  USEFUL:        419  USELESS:      92447
LLC USEFUL LOAD PREFETCHES:        419 PREFETCH ISSUED TO LOWER LEVEL:      93339  ACCURACY: 0.448901
LLC TIMELY PREFETCHES:        419 LATE PREFETCHES: 0 DROPPED PREFETCHES: 0
LLC PREFETCHES SAME FILL-ORIGIN LEVEL: 0 DIFFERENT FILL-ORIGIN LEVEL: 0
LLC AVERAGE MISS LATENCY: 147.245 cycles
LLC RQ	ACCESS:    1292600	FORWARD:          0	MERGED:          0	TO_CACHE:    1292599
LLC WQ	ACCESS:     145752	FORWARD:          1	MERGED:          0	TO_CACHE:     145752
LLC PQ	ACCESS:     270196	FORWARD:          0	MERGED:          0	TO_CACHE:     270196

LLC Dense regions hint to LLC: 0

RAW hits: 1428530
Loads Generated: 47690693
Loads sent to L1D: 46262163
Stores Generated: 26508983
Stores sent to L1D: 26508991
Major fault: 0 Minor fault: 4510
Allocated PAGES: 4510
[Bingo] PHT Access: 1185589
[Bingo] PHT Hit PC+Addr: 663453
[Bingo] PHT Hit PC+Offs: 90161
[Bingo] PHT Miss: 431975
[Bingo] Prefetch PC+Addr: 0
[Bingo] Prefetch PC+Offs: 0
[Bingo] Useful PC+Addr: 0
[Bingo] Useful PC+Offs: 0
[Bingo] Useless PC+Addr: 0
[Bingo] Useless PC+Offs: 0
[Bingo] L1 Prefetch per Region: 0
[Bingo] L2 Prefetch per Region: 4.79051
[Bingo] L3 Prefetch per Region: 0
[Bingo] No Prefetch per Region: 27.2095
[Bingo] Number of Voters Mean: 10.4459
[Bingo] Number of Voters SD: 8.3578
PHT read accesses: 3934547
PHT write accesses: 568391
AT read accesses: 3022071
AT write accesses: 3525094
FT read accesses: 1759098
FT write accesses: 1185589
PS read accesses: 1579412
PS write accesses: 753614
PHT tag read accesses: 18872126
PHT tag write accesses: 1231844
AT tag read accesses: 118771776
AT tag write accesses: 3590461
FT tag read accesses: 96339804
FT tag write accesses: 2360654
PS tag read accesses: 92908090
PS tag write accesses: 2331817

DRAM Statistics
 CHANNEL 0
 RQ ROW_BUFFER_HIT:      71522  ROW_BUFFER_MISS:      93973
 DBUS_CONGESTED:         66
 WQ ROW_BUFFER_HIT:       3049  ROW_BUFFER_MISS:      16075  FULL:          0

 AVG_CONGESTED_CYCLE: 5
 All warmup complete: 2
Channel 0 Bank busy for read cycles: 0
Channel 0 Bank busy for write cycles: 0
Channel 0
Rank 0
0banks busy for read cycles: 646987158
0banks busy for write cycles: 10683
1banks busy for read cycles: 4103709
1banks busy for write cycles: 1519912
2banks busy for read cycles: 2526759
2banks busy for write cycles: 383411
3banks busy for read cycles: 672374
3banks busy for write cycles: 121959
4banks busy for read cycles: 322122
4banks busy for write cycles: 54864
5banks busy for read cycles: 166290
5banks busy for write cycles: 21869
6banks busy for read cycles: 141869
6banks busy for write cycles: 8915
7banks busy for read cycles: 157214
7banks busy for write cycles: 7723
8banks busy for read cycles: 303778
8banks busy for write cycles: 50123

CPU 0 Branch Prediction Accuracy: 99.8126% MPKI: 0.337515 Average ROB Occupancy at Mispredict: 50.1024
Branch types
NOT_BRANCH: 163976101 81.9881%
BRANCH_DIRECT_JUMP: 2028930 1.01446%
BRANCH_INDIRECT: 12036859 6.01843%
BRANCH_CONDITIONAL: 12847814 6.42391%
BRANCH_DIRECT_CALL: 3832241 1.91612%
BRANCH_INDIRECT_CALL: 722842 0.361421%
BRANCH_RETURN: 4555136 2.27757%
BRANCH_OTHER: 0 0%

DRAM PAGES: 1048576
Allocated PAGES: 4510
