
*** ChampSim Multicore Out-of-Order Simulator ***

Warmup Instructions: 50000000
Simulation Instructions: 200000000
Number of CPUs: 1
LLC sets: 2048
LLC ways: 16
Off-chip DRAM Size: 4096 MB Channels: 1 Width: 64-bit Data Rate: 6400 MT/s
CPU 0 runs traces/spec2k17/srv_18.champsimtrace.xz
.xz
BTB has LRU replacement policy
ITLB has LRU replacement policy
DTLB has LRU replacement policy
STLB has LRU replacement policy
L1I has LRU replacement policy
L1D has LRU replacement policy
Bingo PHT WAYS: 16 and PHT_SIZE: 16384
Initialize SRRIP state for L2C
Initialize DRRIP state for LLC
Heartbeat CPU 0 instructions: 10000003 cycles: 2855398 heartbeat IPC: 3.50214 cumulative IPC: 3.50214 (Simulation time: 0 hr 0 min 33 sec) 
Heartbeat CPU 0 instructions: 20000001 cycles: 5708737 heartbeat IPC: 3.50467 cumulative IPC: 3.5034 (Simulation time: 0 hr 1 min 5 sec) 
Heartbeat CPU 0 instructions: 30000001 cycles: 8561520 heartbeat IPC: 3.50535 cumulative IPC: 3.50405 (Simulation time: 0 hr 1 min 36 sec) 
*** Reached end of trace for Core: 0 Repeating trace: traces/spec2k17/srv_18.champsimtrace.xz
Heartbeat CPU 0 instructions: 40000003 cycles: 11410383 heartbeat IPC: 3.51017 cumulative IPC: 3.50558 (Simulation time: 0 hr 2 min 8 sec) 
Heartbeat CPU 0 instructions: 50000002 cycles: 14260911 heartbeat IPC: 3.50812 cumulative IPC: 3.50609 (Simulation time: 0 hr 2 min 40 sec) 

Warmup complete CPU 0 instructions: 50000002 cycles: 14260911 (Simulation time: 0 hr 2 min 40 sec) 

Heartbeat CPU 0 instructions: 60000001 cycles: 47412664 heartbeat IPC: 0.301643 cumulative IPC: 0.301643 (Simulation time: 0 hr 3 min 37 sec) 
*** Reached end of trace for Core: 0 Repeating trace: traces/spec2k17/srv_18.champsimtrace.xz
Heartbeat CPU 0 instructions: 70000000 cycles: 79836984 heartbeat IPC: 0.30841 cumulative IPC: 0.304989 (Simulation time: 0 hr 4 min 36 sec) 
Heartbeat CPU 0 instructions: 80000001 cycles: 112589827 heartbeat IPC: 0.305317 cumulative IPC: 0.305098 (Simulation time: 0 hr 5 min 35 sec) 
Heartbeat CPU 0 instructions: 90000001 cycles: 145733000 heartbeat IPC: 0.301721 cumulative IPC: 0.304247 (Simulation time: 0 hr 6 min 32 sec) 
*** Reached end of trace for Core: 0 Repeating trace: traces/spec2k17/srv_18.champsimtrace.xz
Heartbeat CPU 0 instructions: 100000000 cycles: 178182311 heartbeat IPC: 0.308173 cumulative IPC: 0.305024 (Simulation time: 0 hr 7 min 26 sec) 
Heartbeat CPU 0 instructions: 110000000 cycles: 210801041 heartbeat IPC: 0.306572 cumulative IPC: 0.305281 (Simulation time: 0 hr 8 min 24 sec) 
Heartbeat CPU 0 instructions: 120000000 cycles: 243861335 heartbeat IPC: 0.302478 cumulative IPC: 0.304877 (Simulation time: 0 hr 9 min 19 sec) 
*** Reached end of trace for Core: 0 Repeating trace: traces/spec2k17/srv_18.champsimtrace.xz
Heartbeat CPU 0 instructions: 130000001 cycles: 276297895 heartbeat IPC: 0.308294 cumulative IPC: 0.3053 (Simulation time: 0 hr 10 min 13 sec) 
Heartbeat CPU 0 instructions: 140000003 cycles: 308927442 heartbeat IPC: 0.306471 cumulative IPC: 0.30543 (Simulation time: 0 hr 11 min 12 sec) 
Heartbeat CPU 0 instructions: 150000001 cycles: 341871021 heartbeat IPC: 0.303549 cumulative IPC: 0.305241 (Simulation time: 0 hr 12 min 9 sec) 
*** Reached end of trace for Core: 0 Repeating trace: traces/spec2k17/srv_18.champsimtrace.xz
Heartbeat CPU 0 instructions: 160000000 cycles: 374406902 heartbeat IPC: 0.307353 cumulative IPC: 0.305432 (Simulation time: 0 hr 13 min 6 sec) 
Heartbeat CPU 0 instructions: 170000000 cycles: 406923139 heartbeat IPC: 0.307539 cumulative IPC: 0.305606 (Simulation time: 0 hr 14 min 3 sec) 
Heartbeat CPU 0 instructions: 180000003 cycles: 439888189 heartbeat IPC: 0.303352 cumulative IPC: 0.305432 (Simulation time: 0 hr 15 min 2 sec) 
*** Reached end of trace for Core: 0 Repeating trace: traces/spec2k17/srv_18.champsimtrace.xz
Heartbeat CPU 0 instructions: 190000002 cycles: 472424083 heartbeat IPC: 0.307353 cumulative IPC: 0.305568 (Simulation time: 0 hr 15 min 59 sec) 
Heartbeat CPU 0 instructions: 200000001 cycles: 504900094 heartbeat IPC: 0.30792 cumulative IPC: 0.305724 (Simulation time: 0 hr 16 min 58 sec) 
Heartbeat CPU 0 instructions: 210000002 cycles: 537990720 heartbeat IPC: 0.3022 cumulative IPC: 0.305501 (Simulation time: 0 hr 17 min 57 sec) 
*** Reached end of trace for Core: 0 Repeating trace: traces/spec2k17/srv_18.champsimtrace.xz
Heartbeat CPU 0 instructions: 220000000 cycles: 570574289 heartbeat IPC: 0.306903 cumulative IPC: 0.305583 (Simulation time: 0 hr 18 min 55 sec) 
Heartbeat CPU 0 instructions: 230000003 cycles: 602956014 heartbeat IPC: 0.308816 cumulative IPC: 0.305761 (Simulation time: 0 hr 19 min 51 sec) 
Heartbeat CPU 0 instructions: 240000001 cycles: 635953857 heartbeat IPC: 0.30305 cumulative IPC: 0.305617 (Simulation time: 0 hr 20 min 50 sec) 
*** Reached end of trace for Core: 0 Repeating trace: traces/spec2k17/srv_18.champsimtrace.xz
Heartbeat CPU 0 instructions: 250000003 cycles: 668623413 heartbeat IPC: 0.306095 cumulative IPC: 0.305641 (Simulation time: 0 hr 21 min 49 sec) 
Finished CPU 0 instructions: 200000001 cycles: 654362502 cumulative IPC: 0.305641 (Simulation time: 0 hr 21 min 49 sec) 

ChampSim completed all CPUs

Region of Interest Statistics

CPU 0 cumulative IPC: 0.305641 instructions: 200000001 cycles: 654362502
ITLB TOTAL     ACCESS:   35704942  HIT:   33517961  MISS:    2186981  HIT %:    93.8749  MISS %:    6.12515   MPKI: 10.9349
ITLB LOAD TRANSLATION ACCESS:   35704942  HIT:   33517961  MISS:    2186981  HIT %:    93.8749  MISS %:    6.12515   MPKI: 10.9349
ITLB PREFETCH  REQUESTED:          0  ISSUED:          0  USEFUL:          0  USELESS:          0
ITLB USEFUL LOAD PREFETCHES:          0 PREFETCH ISSUED TO LOWER LEVEL:          0  ACCURACY: -nan
ITLB TIMELY PREFETCHES:          0 LATE PREFETCHES: 0 DROPPED PREFETCHES: 0
ITLB PREFETCHES SAME FILL-ORIGIN LEVEL: 0 DIFFERENT FILL-ORIGIN LEVEL: 0
ITLB AVERAGE MISS LATENCY: 9.15872 cycles
ITLB RQ	ACCESS:   41879847	FORWARD:          0	MERGED:    5655623	TO_CACHE:   36224224

DTLB TOTAL     ACCESS:   45152121  HIT:   43080670  MISS:    2071451  HIT %:    95.4123  MISS %:    4.58772   MPKI: 10.3573
DTLB LOAD TRANSLATION ACCESS:   45152121  HIT:   43080670  MISS:    2071451  HIT %:    95.4123  MISS %:    4.58772   MPKI: 10.3573
DTLB PREFETCH  REQUESTED:          0  ISSUED:          0  USEFUL:          0  USELESS:          0
DTLB USEFUL LOAD PREFETCHES:          0 PREFETCH ISSUED TO LOWER LEVEL:          0  ACCURACY: -nan
DTLB TIMELY PREFETCHES:          0 LATE PREFETCHES: 0 DROPPED PREFETCHES: 0
DTLB PREFETCHES SAME FILL-ORIGIN LEVEL: 0 DIFFERENT FILL-ORIGIN LEVEL: 0
DTLB AVERAGE MISS LATENCY: 10.4989 cycles
DTLB RQ	ACCESS:   59712519	FORWARD:          0	MERGED:   14497254	TO_CACHE:   45215265

STLB TOTAL     ACCESS:    4258432  HIT:    4202990  MISS:      55442  HIT %:    98.6981  MISS %:    1.30193   MPKI: 0.27721
STLB LOAD TRANSLATION ACCESS:    4258432  HIT:    4202990  MISS:      55442  HIT %:    98.6981  MISS %:    1.30193   MPKI: 0.27721
STLB PREFETCH  REQUESTED:          0  ISSUED:          0  USEFUL:          0  USELESS:          0
STLB USEFUL LOAD PREFETCHES:          0 PREFETCH ISSUED TO LOWER LEVEL:          0  ACCURACY: -nan
STLB TIMELY PREFETCHES:          0 LATE PREFETCHES: 0 DROPPED PREFETCHES: 0
STLB PREFETCHES SAME FILL-ORIGIN LEVEL: 0 DIFFERENT FILL-ORIGIN LEVEL: 0
STLB AVERAGE MISS LATENCY: 61.8388 cycles
STLB RQ	ACCESS:    4258432	FORWARD:          0	MERGED:          0	TO_CACHE:    4258432

STLB Hit, L1D data hit: 0
STLB Hit, L2C data hit: 0
STLB Hit, LLC data hit: 0
STLB Hit, LLC data miss: 0
STLB STLB hints to L2: 0
L1D TOTAL     ACCESS:   57839349  HIT:   52125611  MISS:    5713738  HIT %:    90.1214  MISS %:    9.87863   MPKI: 28.5687
L1D LOAD      ACCESS:   33588956  HIT:   29086727  MISS:    4502229  HIT %:    86.5961  MISS %:    13.4039   MPKI: 22.5111
L1D RFO       ACCESS:   24250393  HIT:   23038884  MISS:    1211509  HIT %:    95.0042  MISS %:    4.99583   MPKI: 6.05754
L1D PREFETCH  REQUESTED:          0  ISSUED:          0  USEFUL:          0  USELESS:          0
L1D USEFUL LOAD PREFETCHES:          0 PREFETCH ISSUED TO LOWER LEVEL:          0  ACCURACY: -nan
L1D TIMELY PREFETCHES:          0 LATE PREFETCHES: 0 DROPPED PREFETCHES: 0
L1D PREFETCHES SAME FILL-ORIGIN LEVEL: 0 DIFFERENT FILL-ORIGIN LEVEL: 0
L1D AVERAGE MISS LATENCY: 17.9156 cycles
L1D RQ	ACCESS:   46068429	FORWARD:          0	MERGED:   12054009	TO_CACHE:   33703083
L1D WQ	ACCESS:   26154247	FORWARD:     311337	MERGED:     144811	TO_CACHE:   26009436

L1D UNIQUE REGIONS ACCESSED: 0
L1D REGIONS CONFLICTS: 0
L1D Cross Page Prefetch Requests: 0
L1D Same Page Prefetch Requests: 0
L1D ROI Sum of L1D PQ occupancy: 0
L1D PREFETCHES PUSHED FROM L2C: 0
L1I TOTAL     ACCESS:   40226490  HIT:   29079554  MISS:   11146936  HIT %:    72.2896  MISS %:    27.7104   MPKI: 55.7347
L1I LOAD      ACCESS:   40226490  HIT:   29079554  MISS:   11146936  HIT %:    72.2896  MISS %:    27.7104   MPKI: 55.7347
L1I PREFETCH  REQUESTED:          0  ISSUED:          0  USEFUL:          0  USELESS:          0
L1I USEFUL LOAD PREFETCHES:          0 PREFETCH ISSUED TO LOWER LEVEL:          0  ACCURACY: -nan
L1I TIMELY PREFETCHES:          0 LATE PREFETCHES: 0 DROPPED PREFETCHES: 0
L1I PREFETCHES SAME FILL-ORIGIN LEVEL: 0 DIFFERENT FILL-ORIGIN LEVEL: 0
L1I AVERAGE MISS LATENCY: 16.5092 cycles
L1I RQ	ACCESS:   58328572	FORWARD:          0	MERGED:   16448725	TO_CACHE:   41879847

BTB TOTAL     ACCESS:   30554969  HIT:   18202894  MISS:   12352075  HIT %:    59.5743  MISS %:    40.4257   MPKI: 61.7604
BTB BRANCH_DIRECT_JUMP	ACCESS:    2019656  HIT:    1215832  MISS:     803824
BTB BRANCH_INDIRECT	ACCESS:   11895775  HIT:    7117895  MISS:    4777880
BTB BRANCH_CONDITIONAL	ACCESS:    7695503  HIT:    6433851  MISS:    1261652
BTB BRANCH_DIRECT_CALL	ACCESS:    3770965  HIT:    1770003  MISS:    2000962
BTB BRANCH_INDIRECT_CALL	ACCESS:     701087  HIT:     340568  MISS:     360519
BTB BRANCH_RETURN	ACCESS:    4471983  HIT:    1324745  MISS:    3147238
BTB BRANCH_OTHER ACCESS:          0  HIT:          0  MISS:          0

L2C TOTAL     ACCESS:   22498137  HIT:   20959582  MISS:    1538555  HIT %:    93.1614  MISS %:    6.83859   MPKI: 7.69277
L2C LOAD      ACCESS:   15649158  HIT:   14521774  MISS:    1127384  HIT %:    92.7959  MISS %:    7.20412   MPKI: 5.63692
L2C DATA LOAD MPKI: 1.15449
L2C INSTRUCTION LOAD MPKI: 4.48243
L2C RFO       ACCESS:    1211508  HIT:    1104251  MISS:     107257  HIT %:    91.1468  MISS %:    8.85318   MPKI: 0.536285
L2C PREFETCH  ACCESS:    3257150  HIT:    3034693  MISS:     222457  HIT %:    93.1702  MISS %:    6.82981   MPKI: 1.11228
AGUS PREFETCH L1 MISS: 0
L2C DATA PREFETCH MPKI: 1.11228
L2C INSTRUCTION PREFETCH MPKI: 0
L2C WRITEBACK ACCESS:    2295896  HIT:    2260661  MISS:      35235  HIT %:    98.4653  MISS %:    1.53469   MPKI: 0.176175
L2C LOAD TRANSLATION ACCESS:      84425  HIT:      38203  MISS:      46222  HIT %:    45.2508  MISS %:    54.7492   MPKI: 0.23111
L2C PREFETCH  REQUESTED:    3292688  ISSUED:    3292688  USEFUL:     120512  USELESS:     102022
L2C USEFUL LOAD PREFETCHES:     120512 PREFETCH ISSUED TO LOWER LEVEL:     240501  ACCURACY: 50.1087
L2C TIMELY PREFETCHES:     120512 LATE PREFETCHES: 18044 DROPPED PREFETCHES: 0
L2C PREFETCHES SAME FILL-ORIGIN LEVEL: 240501 DIFFERENT FILL-ORIGIN LEVEL: 0
L2C AVERAGE MISS LATENCY: 39.922 cycles
L2C RQ	ACCESS:   16945098	FORWARD:          0	MERGED:          0	TO_CACHE:   16945091
L2C WQ	ACCESS:    2295896	FORWARD:          7	MERGED:          0	TO_CACHE:    2295896
L2C PQ	ACCESS:    3292688	FORWARD:          0	MERGED:          0	TO_CACHE:    3292688

L2C Instructions Evicting Data 255517
L2C Translations Evicting Data 29581
L2C Data Evicting Data 300890
L2C Instructions Evicting Instructions 627097
L2C Translations Evicting Instructions 13852
L2C Data Evicting Instructions 230625
L2C Instructions Evicting Translations 13872
L2C Translations Evicting Translations 2789
L2C Data Evicting Translations 29097
L2C Dense regions hint from L2: 0
PSCL5 TOTAL     ACCESS:      55442  HIT:      55442  MISS:          0  HIT %:        100  MISS %:          0   MPKI: 0
PSCL5 LOAD TRANSLATION ACCESS:      55442  HIT:      55442  MISS:          0  HIT %:        100  MISS %:          0   MPKI: 0
PSCL5 PREFETCH  REQUESTED:          0  ISSUED:          0  USEFUL:          0  USELESS:          0
PSCL5 USEFUL LOAD PREFETCHES:          0 PREFETCH ISSUED TO LOWER LEVEL:          0  ACCURACY: -nan
PSCL5 TIMELY PREFETCHES:          0 LATE PREFETCHES: 0 DROPPED PREFETCHES: 0
PSCL5 PREFETCHES SAME FILL-ORIGIN LEVEL: 0 DIFFERENT FILL-ORIGIN LEVEL: 0

PSCL4 TOTAL     ACCESS:      53025  HIT:      52308  MISS:        717  HIT %:    98.6478  MISS %:    1.35219   MPKI: 0.003585
PSCL4 LOAD TRANSLATION ACCESS:      53025  HIT:      52308  MISS:        717  HIT %:    98.6478  MISS %:    1.35219   MPKI: 0.003585
PSCL4 PREFETCH  REQUESTED:          0  ISSUED:          0  USEFUL:          0  USELESS:          0
PSCL4 USEFUL LOAD PREFETCHES:          0 PREFETCH ISSUED TO LOWER LEVEL:          0  ACCURACY: -nan
PSCL4 TIMELY PREFETCHES:          0 LATE PREFETCHES: 0 DROPPED PREFETCHES: 0
PSCL4 PREFETCHES SAME FILL-ORIGIN LEVEL: 0 DIFFERENT FILL-ORIGIN LEVEL: 0

PSCL3 TOTAL     ACCESS:      55322  HIT:      54605  MISS:        717  HIT %:     98.704  MISS %:    1.29605   MPKI: 0.003585
PSCL3 LOAD TRANSLATION ACCESS:      55322  HIT:      54605  MISS:        717  HIT %:     98.704  MISS %:    1.29605   MPKI: 0.003585
PSCL3 PREFETCH  REQUESTED:          0  ISSUED:          0  USEFUL:          0  USELESS:          0
PSCL3 USEFUL LOAD PREFETCHES:          0 PREFETCH ISSUED TO LOWER LEVEL:          0  ACCURACY: -nan
PSCL3 TIMELY PREFETCHES:          0 LATE PREFETCHES: 0 DROPPED PREFETCHES: 0
PSCL3 PREFETCHES SAME FILL-ORIGIN LEVEL: 0 DIFFERENT FILL-ORIGIN LEVEL: 0

PSCL2 TOTAL     ACCESS:      55442  HIT:      27893  MISS:      27549  HIT %:    50.3102  MISS %:    49.6898   MPKI: 0.137745
PSCL2 LOAD TRANSLATION ACCESS:      55442  HIT:      27893  MISS:      27549  HIT %:    50.3102  MISS %:    49.6898   MPKI: 0.137745
PSCL2 PREFETCH  REQUESTED:          0  ISSUED:          0  USEFUL:          0  USELESS:          0
PSCL2 USEFUL LOAD PREFETCHES:          0 PREFETCH ISSUED TO LOWER LEVEL:          0  ACCURACY: -nan
PSCL2 TIMELY PREFETCHES:          0 LATE PREFETCHES: 0 DROPPED PREFETCHES: 0
PSCL2 PREFETCHES SAME FILL-ORIGIN LEVEL: 0 DIFFERENT FILL-ORIGIN LEVEL: 0

LLC TOTAL     ACCESS:    1640785  HIT:    1526298  MISS:     114487  HIT %:    93.0224  MISS %:    6.97757   MPKI: 0.572435
LLC LOAD      ACCESS:    1109376  HIT:    1075318  MISS:      34058  HIT %:      96.93  MISS %:    3.07001   MPKI: 0.17029
LLC RFO       ACCESS:     107221  HIT:      95680  MISS:      11541  HIT %:    89.2363  MISS %:    10.7637   MPKI: 0.057705
LLC PREFETCH  ACCESS:     240499  HIT:     175595  MISS:      64904  HIT %:    73.0128  MISS %:    26.9872   MPKI: 0.32452
AGUS PREFETCH L1 MISS: 0
LLC WRITEBACK ACCESS:     137467  HIT:     137264  MISS:        203  HIT %:    99.8523  MISS %:   0.147672   MPKI: 0.001015
LLC LOAD TRANSLATION ACCESS:      46222  HIT:      42441  MISS:       3781  HIT %:    91.8199  MISS %:    8.18009   MPKI: 0.018905
LLC PREFETCH  REQUESTED:          0  ISSUED:          0  USEFUL:        448  USELESS:      63793
LLC USEFUL LOAD PREFETCHES:        448 PREFETCH ISSUED TO LOWER LEVEL:      64904  ACCURACY: 0.69025
LLC TIMELY PREFETCHES:        448 LATE PREFETCHES: 0 DROPPED PREFETCHES: 0
LLC PREFETCHES SAME FILL-ORIGIN LEVEL: 0 DIFFERENT FILL-ORIGIN LEVEL: 0
LLC AVERAGE MISS LATENCY: 145.729 cycles
LLC RQ	ACCESS:    1262819	FORWARD:          0	MERGED:          0	TO_CACHE:    1262819
LLC WQ	ACCESS:     137467	FORWARD:          2	MERGED:          0	TO_CACHE:     137467
LLC PQ	ACCESS:     240501	FORWARD:          0	MERGED:          0	TO_CACHE:     240499

LLC Dense regions hint to LLC: 0

RAW hits: 1389566
Loads Generated: 47457995
Loads sent to L1D: 46068429
Stores Generated: 26154243
Stores sent to L1D: 26154247
Major fault: 0 Minor fault: 4194
Allocated PAGES: 4194
[Bingo] PHT Access: 1189590
[Bingo] PHT Hit PC+Addr: 667979
[Bingo] PHT Hit PC+Offs: 79645
[Bingo] PHT Miss: 441966
[Bingo] Prefetch PC+Addr: 0
[Bingo] Prefetch PC+Offs: 0
[Bingo] Useful PC+Addr: 0
[Bingo] Useful PC+Offs: 0
[Bingo] Useless PC+Addr: 0
[Bingo] Useless PC+Offs: 0
[Bingo] L1 Prefetch per Region: 0
[Bingo] L2 Prefetch per Region: 5.41543
[Bingo] L3 Prefetch per Region: 0
[Bingo] No Prefetch per Region: 26.5846
[Bingo] Number of Voters Mean: 10.676
[Bingo] Number of Voters SD: 8.45461
PHT read accesses: 3751926
PHT write accesses: 575233
AT read accesses: 3360625
AT write accesses: 3871491
FT read accesses: 1773526
FT write accesses: 1189590
PS read accesses: 1600424
PS write accesses: 747624
PHT tag read accesses: 18986645
PHT tag write accesses: 1243212
AT tag read accesses: 123775181
AT tag write accesses: 3935860
FT tag read accesses: 95989334
FT tag write accesses: 2371505
PS tag read accesses: 97831552
PS tag write accesses: 2345374

DRAM Statistics
 CHANNEL 0
 RQ ROW_BUFFER_HIT:      44807  ROW_BUFFER_MISS:      69411
 DBUS_CONGESTED:         25
 WQ ROW_BUFFER_HIT:       1679  ROW_BUFFER_MISS:      10881  FULL:          0

 AVG_CONGESTED_CYCLE: 4
 All warmup complete: 2
Channel 0 Bank busy for read cycles: 0
Channel 0 Bank busy for write cycles: 0
Channel 0
Rank 0
0banks busy for read cycles: 646483607
0banks busy for write cycles: 8029
1banks busy for read cycles: 3440253
1banks busy for write cycles: 1113610
2banks busy for read cycles: 1718497
2banks busy for write cycles: 250682
3banks busy for read cycles: 483896
3banks busy for write cycles: 77119
4banks busy for read cycles: 198435
4banks busy for write cycles: 27815
5banks busy for read cycles: 131996
5banks busy for write cycles: 11949
6banks busy for read cycles: 112675
6banks busy for write cycles: 5223
7banks busy for read cycles: 120157
7banks busy for write cycles: 2950
8banks busy for read cycles: 169161
8banks busy for write cycles: 6449

CPU 0 Branch Prediction Accuracy: 99.8229% MPKI: 0.32073 Average ROB Occupancy at Mispredict: 50.221
Branch types
NOT_BRANCH: 163788271 81.8941%
BRANCH_DIRECT_JUMP: 2019656 1.00983%
BRANCH_INDIRECT: 11895775 5.94789%
BRANCH_CONDITIONAL: 13352284 6.67614%
BRANCH_DIRECT_CALL: 3770965 1.88548%
BRANCH_INDIRECT_CALL: 701087 0.350543%
BRANCH_RETURN: 4471983 2.23599%
BRANCH_OTHER: 0 0%

DRAM PAGES: 1048576
Allocated PAGES: 4194
