
*** ChampSim Multicore Out-of-Order Simulator ***

Warmup Instructions: 50000000
Simulation Instructions: 200000000
Number of CPUs: 1
LLC sets: 2048
LLC ways: 16
Off-chip DRAM Size: 4096 MB Channels: 1 Width: 64-bit Data Rate: 6400 MT/s
CPU 0 runs traces/spec2k17/srv_13.champsimtrace.xz
.xz
BTB has LRU replacement policy
ITLB has LRU replacement policy
DTLB has LRU replacement policy
STLB has LRU replacement policy
L1I has LRU replacement policy
L1D has LRU replacement policy
Bingo PHT WAYS: 16 and PHT_SIZE: 16384
Initialize SRRIP state for L2C
Initialize DRRIP state for LLC
Heartbeat CPU 0 instructions: 10000002 cycles: 2810628 heartbeat IPC: 3.55792 cumulative IPC: 3.55792 (Simulation time: 0 hr 0 min 34 sec) 
Heartbeat CPU 0 instructions: 20000000 cycles: 5617937 heartbeat IPC: 3.56213 cumulative IPC: 3.56003 (Simulation time: 0 hr 1 min 9 sec) 
Heartbeat CPU 0 instructions: 30000003 cycles: 8428396 heartbeat IPC: 3.55814 cumulative IPC: 3.5594 (Simulation time: 0 hr 1 min 43 sec) 
*** Reached end of trace for Core: 0 Repeating trace: traces/spec2k17/srv_13.champsimtrace.xz
Heartbeat CPU 0 instructions: 40000001 cycles: 11229960 heartbeat IPC: 3.56943 cumulative IPC: 3.5619 (Simulation time: 0 hr 2 min 17 sec) 
Heartbeat CPU 0 instructions: 50000003 cycles: 14037978 heartbeat IPC: 3.56123 cumulative IPC: 3.56177 (Simulation time: 0 hr 2 min 54 sec) 

Warmup complete CPU 0 instructions: 50000003 cycles: 14037978 (Simulation time: 0 hr 2 min 54 sec) 

Heartbeat CPU 0 instructions: 60000000 cycles: 44349620 heartbeat IPC: 0.329906 cumulative IPC: 0.329906 (Simulation time: 0 hr 3 min 51 sec) 
*** Reached end of trace for Core: 0 Repeating trace: traces/spec2k17/srv_13.champsimtrace.xz
Heartbeat CPU 0 instructions: 70000001 cycles: 73422780 heartbeat IPC: 0.34396 cumulative IPC: 0.336786 (Simulation time: 0 hr 4 min 47 sec) 
Heartbeat CPU 0 instructions: 80000003 cycles: 103335504 heartbeat IPC: 0.334306 cumulative IPC: 0.335956 (Simulation time: 0 hr 5 min 45 sec) 
Heartbeat CPU 0 instructions: 90000001 cycles: 133708904 heartbeat IPC: 0.329235 cumulative IPC: 0.33425 (Simulation time: 0 hr 6 min 42 sec) 
*** Reached end of trace for Core: 0 Repeating trace: traces/spec2k17/srv_13.champsimtrace.xz
Heartbeat CPU 0 instructions: 100000000 cycles: 163037943 heartbeat IPC: 0.340959 cumulative IPC: 0.335571 (Simulation time: 0 hr 7 min 38 sec) 
Heartbeat CPU 0 instructions: 110000000 cycles: 192623746 heartbeat IPC: 0.338 cumulative IPC: 0.335973 (Simulation time: 0 hr 8 min 34 sec) 
Heartbeat CPU 0 instructions: 120000002 cycles: 223053311 heartbeat IPC: 0.328628 cumulative IPC: 0.334904 (Simulation time: 0 hr 9 min 29 sec) 
*** Reached end of trace for Core: 0 Repeating trace: traces/spec2k17/srv_13.champsimtrace.xz
Heartbeat CPU 0 instructions: 130000001 cycles: 252266714 heartbeat IPC: 0.342309 cumulative IPC: 0.335812 (Simulation time: 0 hr 10 min 23 sec) 
Heartbeat CPU 0 instructions: 140000002 cycles: 282049025 heartbeat IPC: 0.33577 cumulative IPC: 0.335807 (Simulation time: 0 hr 11 min 20 sec) 
Heartbeat CPU 0 instructions: 150000002 cycles: 312293134 heartbeat IPC: 0.330643 cumulative IPC: 0.335283 (Simulation time: 0 hr 12 min 17 sec) 
*** Reached end of trace for Core: 0 Repeating trace: traces/spec2k17/srv_13.champsimtrace.xz
Heartbeat CPU 0 instructions: 160000002 cycles: 341488394 heartbeat IPC: 0.342521 cumulative IPC: 0.335929 (Simulation time: 0 hr 13 min 13 sec) 
Heartbeat CPU 0 instructions: 170000000 cycles: 371370989 heartbeat IPC: 0.334643 cumulative IPC: 0.335821 (Simulation time: 0 hr 14 min 7 sec) 
Heartbeat CPU 0 instructions: 180000003 cycles: 401557245 heartbeat IPC: 0.331277 cumulative IPC: 0.335467 (Simulation time: 0 hr 15 min 5 sec) 
*** Reached end of trace for Core: 0 Repeating trace: traces/spec2k17/srv_13.champsimtrace.xz
Heartbeat CPU 0 instructions: 190000000 cycles: 430909925 heartbeat IPC: 0.340684 cumulative IPC: 0.335835 (Simulation time: 0 hr 16 min 4 sec) 
Heartbeat CPU 0 instructions: 200000001 cycles: 460688202 heartbeat IPC: 0.335815 cumulative IPC: 0.335833 (Simulation time: 0 hr 17 min 0 sec) 
Heartbeat CPU 0 instructions: 210000000 cycles: 490603072 heartbeat IPC: 0.334282 cumulative IPC: 0.335736 (Simulation time: 0 hr 17 min 54 sec) 
*** Reached end of trace for Core: 0 Repeating trace: traces/spec2k17/srv_13.champsimtrace.xz
Heartbeat CPU 0 instructions: 220000000 cycles: 520200298 heartbeat IPC: 0.337869 cumulative IPC: 0.335861 (Simulation time: 0 hr 18 min 48 sec) 
Heartbeat CPU 0 instructions: 230000001 cycles: 549833767 heartbeat IPC: 0.337456 cumulative IPC: 0.335949 (Simulation time: 0 hr 19 min 44 sec) 
Heartbeat CPU 0 instructions: 240000000 cycles: 579767808 heartbeat IPC: 0.334068 cumulative IPC: 0.335849 (Simulation time: 0 hr 20 min 41 sec) 
*** Reached end of trace for Core: 0 Repeating trace: traces/spec2k17/srv_13.champsimtrace.xz
Heartbeat CPU 0 instructions: 250000000 cycles: 609725032 heartbeat IPC: 0.333809 cumulative IPC: 0.335747 (Simulation time: 0 hr 21 min 37 sec) 
Finished CPU 0 instructions: 200000003 cycles: 595687056 cumulative IPC: 0.335747 (Simulation time: 0 hr 21 min 37 sec) 

ChampSim completed all CPUs

Region of Interest Statistics

CPU 0 cumulative IPC: 0.335747 instructions: 200000003 cycles: 595687056
ITLB TOTAL     ACCESS:   34417471  HIT:   32579346  MISS:    1838125  HIT %:    94.6593  MISS %:    5.34067   MPKI: 9.19062
ITLB LOAD TRANSLATION ACCESS:   34417471  HIT:   32579346  MISS:    1838125  HIT %:    94.6593  MISS %:    5.34067   MPKI: 9.19062
ITLB PREFETCH  REQUESTED:          0  ISSUED:          0  USEFUL:          0  USELESS:          0
ITLB USEFUL LOAD PREFETCHES:          0 PREFETCH ISSUED TO LOWER LEVEL:          0  ACCURACY: -nan
ITLB TIMELY PREFETCHES:          0 LATE PREFETCHES: 0 DROPPED PREFETCHES: 0
ITLB PREFETCHES SAME FILL-ORIGIN LEVEL: 0 DIFFERENT FILL-ORIGIN LEVEL: 0
ITLB AVERAGE MISS LATENCY: 9.04083 cycles
ITLB RQ	ACCESS:   40218709	FORWARD:          0	MERGED:    5358289	TO_CACHE:   34860420

DTLB TOTAL     ACCESS:   45402974  HIT:   43609369  MISS:    1793605  HIT %:    96.0496  MISS %:    3.95041   MPKI: 8.96802
DTLB LOAD TRANSLATION ACCESS:   45402974  HIT:   43609369  MISS:    1793605  HIT %:    96.0496  MISS %:    3.95041   MPKI: 8.96802
DTLB PREFETCH  REQUESTED:          0  ISSUED:          0  USEFUL:          0  USELESS:          0
DTLB USEFUL LOAD PREFETCHES:          0 PREFETCH ISSUED TO LOWER LEVEL:          0  ACCURACY: -nan
DTLB TIMELY PREFETCHES:          0 LATE PREFETCHES: 0 DROPPED PREFETCHES: 0
DTLB PREFETCHES SAME FILL-ORIGIN LEVEL: 0 DIFFERENT FILL-ORIGIN LEVEL: 0
DTLB AVERAGE MISS LATENCY: 9.21162 cycles
DTLB RQ	ACCESS:   59743284	FORWARD:          0	MERGED:   14275202	TO_CACHE:   45468082

STLB TOTAL     ACCESS:    3631729  HIT:    3622378  MISS:       9351  HIT %:    99.7425  MISS %:   0.257481   MPKI: 0.046755
STLB LOAD TRANSLATION ACCESS:    3631729  HIT:    3622378  MISS:       9351  HIT %:    99.7425  MISS %:   0.257481   MPKI: 0.046755
STLB PREFETCH  REQUESTED:          0  ISSUED:          0  USEFUL:          0  USELESS:          0
STLB USEFUL LOAD PREFETCHES:          0 PREFETCH ISSUED TO LOWER LEVEL:          0  ACCURACY: -nan
STLB TIMELY PREFETCHES:          0 LATE PREFETCHES: 0 DROPPED PREFETCHES: 0
STLB PREFETCHES SAME FILL-ORIGIN LEVEL: 0 DIFFERENT FILL-ORIGIN LEVEL: 0
STLB AVERAGE MISS LATENCY: 46.0684 cycles
STLB RQ	ACCESS:    3631729	FORWARD:          0	MERGED:          0	TO_CACHE:    3631729

STLB Hit, L1D data hit: 0
STLB Hit, L2C data hit: 0
STLB Hit, LLC data hit: 0
STLB Hit, LLC data miss: 0
STLB STLB hints to L2: 0
L1D TOTAL     ACCESS:   57974668  HIT:   54160761  MISS:    3813907  HIT %:    93.4214  MISS %:    6.57857   MPKI: 19.0695
L1D LOAD      ACCESS:   33497114  HIT:   30751618  MISS:    2745496  HIT %:    91.8038  MISS %:    8.19622   MPKI: 13.7275
L1D RFO       ACCESS:   24477554  HIT:   23409143  MISS:    1068411  HIT %:    95.6351  MISS %:    4.36486   MPKI: 5.34205
L1D PREFETCH  REQUESTED:          0  ISSUED:          0  USEFUL:          0  USELESS:          0
L1D USEFUL LOAD PREFETCHES:          0 PREFETCH ISSUED TO LOWER LEVEL:          0  ACCURACY: -nan
L1D TIMELY PREFETCHES:          0 LATE PREFETCHES: 0 DROPPED PREFETCHES: 0
L1D PREFETCHES SAME FILL-ORIGIN LEVEL: 0 DIFFERENT FILL-ORIGIN LEVEL: 0
L1D AVERAGE MISS LATENCY: 19.2852 cycles
L1D RQ	ACCESS:   46971226	FORWARD:          0	MERGED:   13072026	TO_CACHE:   33603334
L1D WQ	ACCESS:   26311887	FORWARD:     295866	MERGED:     171937	TO_CACHE:   26139950

L1D UNIQUE REGIONS ACCESSED: 0
L1D REGIONS CONFLICTS: 0
L1D Cross Page Prefetch Requests: 0
L1D Same Page Prefetch Requests: 0
L1D ROI Sum of L1D PQ occupancy: 0
L1D PREFETCHES PUSHED FROM L2C: 0
L1I TOTAL     ACCESS:   38813978  HIT:   29173139  MISS:    9640839  HIT %:    75.1614  MISS %:    24.8386   MPKI: 48.2042
L1I LOAD      ACCESS:   38813978  HIT:   29173139  MISS:    9640839  HIT %:    75.1614  MISS %:    24.8386   MPKI: 48.2042
L1I PREFETCH  REQUESTED:          0  ISSUED:          0  USEFUL:          0  USELESS:          0
L1I USEFUL LOAD PREFETCHES:          0 PREFETCH ISSUED TO LOWER LEVEL:          0  ACCURACY: -nan
L1I TIMELY PREFETCHES:          0 LATE PREFETCHES: 0 DROPPED PREFETCHES: 0
L1I PREFETCHES SAME FILL-ORIGIN LEVEL: 0 DIFFERENT FILL-ORIGIN LEVEL: 0
L1I AVERAGE MISS LATENCY: 16.8956 cycles
L1I RQ	ACCESS:   57782661	FORWARD:          0	MERGED:   17563952	TO_CACHE:   40218709

BTB TOTAL     ACCESS:   30281760  HIT:   18910009  MISS:   11371751  HIT %:    62.4469  MISS %:    37.5531   MPKI: 56.8588
BTB BRANCH_DIRECT_JUMP	ACCESS:    2184471  HIT:    1385849  MISS:     798622
BTB BRANCH_INDIRECT	ACCESS:   11367631  HIT:    7108083  MISS:    4259548
BTB BRANCH_CONDITIONAL	ACCESS:    8713184  HIT:    7563917  MISS:    1149267
BTB BRANCH_DIRECT_CALL	ACCESS:    3386061  HIT:    1522950  MISS:    1863111
BTB BRANCH_INDIRECT_CALL	ACCESS:     622186  HIT:     244573  MISS:     377613
BTB BRANCH_RETURN	ACCESS:    4008227  HIT:    1084637  MISS:    2923590
BTB BRANCH_OTHER ACCESS:          0  HIT:          0  MISS:          0

L2C TOTAL     ACCESS:   16964930  HIT:   15314638  MISS:    1650292  HIT %:    90.2723  MISS %:    9.72767   MPKI: 8.25146
L2C LOAD      ACCESS:   12386297  HIT:   11302252  MISS:    1084045  HIT %:     91.248  MISS %:    8.75197   MPKI: 5.42022
L2C DATA LOAD MPKI: 0.909465
L2C INSTRUCTION LOAD MPKI: 4.51076
L2C RFO       ACCESS:    1068409  HIT:     845777  MISS:     222632  HIT %:    79.1623  MISS %:    20.8377   MPKI: 1.11316
L2C PREFETCH  ACCESS:    1713926  HIT:    1428318  MISS:     285608  HIT %:     83.336  MISS %:     16.664   MPKI: 1.42804
AGUS PREFETCH L1 MISS: 0
L2C DATA PREFETCH MPKI: 1.42804
L2C INSTRUCTION PREFETCH MPKI: 0
L2C WRITEBACK ACCESS:    1785987  HIT:    1735135  MISS:      50852  HIT %:    97.1527  MISS %:    2.84728   MPKI: 0.25426
L2C LOAD TRANSLATION ACCESS:      10311  HIT:       3156  MISS:       7155  HIT %:    30.6081  MISS %:    69.3919   MPKI: 0.035775
L2C PREFETCH  REQUESTED:    1740743  ISSUED:    1740743  USEFUL:     196997  USELESS:      88652
L2C USEFUL LOAD PREFETCHES:     196997 PREFETCH ISSUED TO LOWER LEVEL:     302712  ACCURACY: 65.0774
L2C TIMELY PREFETCHES:     196997 LATE PREFETCHES: 17104 DROPPED PREFETCHES: 0
L2C PREFETCHES SAME FILL-ORIGIN LEVEL: 302712 DIFFERENT FILL-ORIGIN LEVEL: 0
L2C AVERAGE MISS LATENCY: 34.0918 cycles
L2C RQ	ACCESS:   13465059	FORWARD:          0	MERGED:          0	TO_CACHE:   13465019
L2C WQ	ACCESS:    1785987	FORWARD:         40	MERGED:          0	TO_CACHE:    1785987
L2C PQ	ACCESS:    1740743	FORWARD:          0	MERGED:          0	TO_CACHE:    1740743

L2C Instructions Evicting Data 349908
L2C Translations Evicting Data 5048
L2C Data Evicting Data 364237
L2C Instructions Evicting Instructions 550423
L2C Translations Evicting Instructions 2004
L2C Data Evicting Instructions 320837
L2C Instructions Evicting Translations 1821
L2C Translations Evicting Translations 103
L2C Data Evicting Translations 5059
L2C Dense regions hint from L2: 0
PSCL5 TOTAL     ACCESS:       9351  HIT:       9351  MISS:          0  HIT %:        100  MISS %:          0   MPKI: 0
PSCL5 LOAD TRANSLATION ACCESS:       9351  HIT:       9351  MISS:          0  HIT %:        100  MISS %:          0   MPKI: 0
PSCL5 PREFETCH  REQUESTED:          0  ISSUED:          0  USEFUL:          0  USELESS:          0
PSCL5 USEFUL LOAD PREFETCHES:          0 PREFETCH ISSUED TO LOWER LEVEL:          0  ACCURACY: -nan
PSCL5 TIMELY PREFETCHES:          0 LATE PREFETCHES: 0 DROPPED PREFETCHES: 0
PSCL5 PREFETCHES SAME FILL-ORIGIN LEVEL: 0 DIFFERENT FILL-ORIGIN LEVEL: 0

PSCL4 TOTAL     ACCESS:       8729  HIT:       8698  MISS:         31  HIT %:    99.6449  MISS %:   0.355138   MPKI: 0.000155
PSCL4 LOAD TRANSLATION ACCESS:       8729  HIT:       8698  MISS:         31  HIT %:    99.6449  MISS %:   0.355138   MPKI: 0.000155
PSCL4 PREFETCH  REQUESTED:          0  ISSUED:          0  USEFUL:          0  USELESS:          0
PSCL4 USEFUL LOAD PREFETCHES:          0 PREFETCH ISSUED TO LOWER LEVEL:          0  ACCURACY: -nan
PSCL4 TIMELY PREFETCHES:          0 LATE PREFETCHES: 0 DROPPED PREFETCHES: 0
PSCL4 PREFETCHES SAME FILL-ORIGIN LEVEL: 0 DIFFERENT FILL-ORIGIN LEVEL: 0

PSCL3 TOTAL     ACCESS:       9255  HIT:       9224  MISS:         31  HIT %:     99.665  MISS %:   0.334954   MPKI: 0.000155
PSCL3 LOAD TRANSLATION ACCESS:       9255  HIT:       9224  MISS:         31  HIT %:     99.665  MISS %:   0.334954   MPKI: 0.000155
PSCL3 PREFETCH  REQUESTED:          0  ISSUED:          0  USEFUL:          0  USELESS:          0
PSCL3 USEFUL LOAD PREFETCHES:          0 PREFETCH ISSUED TO LOWER LEVEL:          0  ACCURACY: -nan
PSCL3 TIMELY PREFETCHES:          0 LATE PREFETCHES: 0 DROPPED PREFETCHES: 0
PSCL3 PREFETCHES SAME FILL-ORIGIN LEVEL: 0 DIFFERENT FILL-ORIGIN LEVEL: 0

PSCL2 TOTAL     ACCESS:       9351  HIT:       8453  MISS:        898  HIT %:    90.3967  MISS %:    9.60325   MPKI: 0.00449
PSCL2 LOAD TRANSLATION ACCESS:       9351  HIT:       8453  MISS:        898  HIT %:    90.3967  MISS %:    9.60325   MPKI: 0.00449
PSCL2 PREFETCH  REQUESTED:          0  ISSUED:          0  USEFUL:          0  USELESS:          0
PSCL2 USEFUL LOAD PREFETCHES:          0 PREFETCH ISSUED TO LOWER LEVEL:          0  ACCURACY: -nan
PSCL2 TIMELY PREFETCHES:          0 LATE PREFETCHES: 0 DROPPED PREFETCHES: 0
PSCL2 PREFETCHES SAME FILL-ORIGIN LEVEL: 0 DIFFERENT FILL-ORIGIN LEVEL: 0

LLC TOTAL     ACCESS:    1904893  HIT:    1851090  MISS:      53803  HIT %:    97.1755  MISS %:    2.82446   MPKI: 0.269015
LLC LOAD      ACCESS:    1067092  HIT:    1060609  MISS:       6483  HIT %:    99.3925  MISS %:   0.607539   MPKI: 0.032415
LLC RFO       ACCESS:     222481  HIT:     199984  MISS:      22497  HIT %:    89.8881  MISS %:    10.1119   MPKI: 0.112485
LLC PREFETCH  ACCESS:     302712  HIT:     278134  MISS:      24578  HIT %:    91.8807  MISS %:    8.11927   MPKI: 0.12289
AGUS PREFETCH L1 MISS: 0
LLC WRITEBACK ACCESS:     305453  HIT:     305362  MISS:         91  HIT %:    99.9702  MISS %:  0.0297918   MPKI: 0.000455
LLC LOAD TRANSLATION ACCESS:       7155  HIT:       7001  MISS:        154  HIT %:    97.8477  MISS %:    2.15234   MPKI: 0.00077
LLC PREFETCH  REQUESTED:          0  ISSUED:          0  USEFUL:       1213  USELESS:      23437
LLC USEFUL LOAD PREFETCHES:       1213 PREFETCH ISSUED TO LOWER LEVEL:      24578  ACCURACY: 4.93531
LLC TIMELY PREFETCHES:       1213 LATE PREFETCHES: 0 DROPPED PREFETCHES: 0
LLC PREFETCHES SAME FILL-ORIGIN LEVEL: 0 DIFFERENT FILL-ORIGIN LEVEL: 0
LLC AVERAGE MISS LATENCY: 159.387 cycles
LLC RQ	ACCESS:    1296728	FORWARD:          0	MERGED:          0	TO_CACHE:    1296728
LLC WQ	ACCESS:     305453	FORWARD:          0	MERGED:          0	TO_CACHE:     305453
LLC PQ	ACCESS:     302712	FORWARD:          0	MERGED:          0	TO_CACHE:     302712

LLC Dense regions hint to LLC: 0

RAW hits: 1371139
Loads Generated: 48342365
Loads sent to L1D: 46971226
Stores Generated: 26311870
Stores sent to L1D: 26311887
Major fault: 0 Minor fault: 1910
Allocated PAGES: 1910
[Bingo] PHT Access: 791235
[Bingo] PHT Hit PC+Addr: 457088
[Bingo] PHT Hit PC+Offs: 64198
[Bingo] PHT Miss: 269949
[Bingo] Prefetch PC+Addr: 0
[Bingo] Prefetch PC+Offs: 0
[Bingo] Useful PC+Addr: 0
[Bingo] Useful PC+Offs: 0
[Bingo] Useless PC+Addr: 0
[Bingo] Useless PC+Offs: 0
[Bingo] L1 Prefetch per Region: 0
[Bingo] L2 Prefetch per Region: 4.34373
[Bingo] L3 Prefetch per Region: 0
[Bingo] No Prefetch per Region: 27.6563
[Bingo] Number of Voters Mean: 8.72907
[Bingo] Number of Voters SD: 7.743
PHT read accesses: 2319368
PHT write accesses: 380512
AT read accesses: 2011831
AT write accesses: 2319089
FT read accesses: 1200424
FT write accesses: 791235
PS read accesses: 1071545
PS write accesses: 521286
PHT tag read accesses: 12353858
PHT tag write accesses: 837600
AT tag read accesses: 88041572
AT tag write accesses: 2392338
FT tag read accesses: 73723047
FT tag write accesses: 1595511
PS tag read accesses: 61293244
PS tag write accesses: 1592551

DRAM Statistics
 CHANNEL 0
 RQ ROW_BUFFER_HIT:      20341  ROW_BUFFER_MISS:      33340
 DBUS_CONGESTED:         96
 WQ ROW_BUFFER_HIT:       2563  ROW_BUFFER_MISS:      22300  FULL:          0

 AVG_CONGESTED_CYCLE: 6
 All warmup complete: 2
Channel 0 Bank busy for read cycles: 0
Channel 0 Bank busy for write cycles: 0
Channel 0
Rank 0
0banks busy for read cycles: 591710987
0banks busy for write cycles: 7142
1banks busy for read cycles: 1192136
1banks busy for write cycles: 725552
2banks busy for read cycles: 491058
2banks busy for write cycles: 255875
3banks busy for read cycles: 232842
3banks busy for write cycles: 136516
4banks busy for read cycles: 154000
4banks busy for write cycles: 92959
5banks busy for read cycles: 108319
5banks busy for write cycles: 70798
6banks busy for read cycles: 81374
6banks busy for write cycles: 60750
7banks busy for read cycles: 87747
7banks busy for write cycles: 58756
8banks busy for read cycles: 112585
8banks busy for write cycles: 107661

CPU 0 Branch Prediction Accuracy: 99.8429% MPKI: 0.27698 Average ROB Occupancy at Mispredict: 51.1166
Branch types
NOT_BRANCH: 164736745 82.3684%
BRANCH_DIRECT_JUMP: 2184471 1.09224%
BRANCH_INDIRECT: 11367631 5.68382%
BRANCH_CONDITIONAL: 13694607 6.8473%
BRANCH_DIRECT_CALL: 3386061 1.69303%
BRANCH_INDIRECT_CALL: 622186 0.311093%
BRANCH_RETURN: 4008227 2.00411%
BRANCH_OTHER: 0 0%

DRAM PAGES: 1048576
Allocated PAGES: 1910
