
*** ChampSim Multicore Out-of-Order Simulator ***

Warmup Instructions: 50000000
Simulation Instructions: 200000000
Number of CPUs: 1
LLC sets: 2048
LLC ways: 16
Off-chip DRAM Size: 4096 MB Channels: 1 Width: 64-bit Data Rate: 6400 MT/s
CPU 0 runs traces/spec2k17/srv_58.champsimtrace.xz
.xz
BTB has LRU replacement policy
ITLB has LRU replacement policy
DTLB has LRU replacement policy
STLB has LRU replacement policy
L1I has LRU replacement policy
L1D has LRU replacement policy
Bingo PHT WAYS: 16 and PHT_SIZE: 16384
Initialize SRRIP state for L2C
Initialize DRRIP state for LLC
Heartbeat CPU 0 instructions: 10000001 cycles: 2795133 heartbeat IPC: 3.57765 cumulative IPC: 3.57765 (Simulation time: 0 hr 0 min 38 sec) 
Heartbeat CPU 0 instructions: 20000002 cycles: 5588721 heartbeat IPC: 3.57963 cumulative IPC: 3.57864 (Simulation time: 0 hr 1 min 16 sec) 
Heartbeat CPU 0 instructions: 30000003 cycles: 8610128 heartbeat IPC: 3.30972 cumulative IPC: 3.48427 (Simulation time: 0 hr 1 min 57 sec) 
*** Reached end of trace for Core: 0 Repeating trace: traces/spec2k17/srv_58.champsimtrace.xz
Heartbeat CPU 0 instructions: 40000003 cycles: 11429152 heartbeat IPC: 3.54733 cumulative IPC: 3.49982 (Simulation time: 0 hr 2 min 35 sec) 
Heartbeat CPU 0 instructions: 50000000 cycles: 14219617 heartbeat IPC: 3.58363 cumulative IPC: 3.51627 (Simulation time: 0 hr 3 min 11 sec) 

Warmup complete CPU 0 instructions: 50000004 cycles: 14219618 (Simulation time: 0 hr 3 min 11 sec) 

Heartbeat CPU 0 instructions: 60000000 cycles: 25393342 heartbeat IPC: 0.894957 cumulative IPC: 0.894956 (Simulation time: 0 hr 4 min 5 sec) 
*** Reached end of trace for Core: 0 Repeating trace: traces/spec2k17/srv_58.champsimtrace.xz
Heartbeat CPU 0 instructions: 70000000 cycles: 42589377 heartbeat IPC: 0.581529 cumulative IPC: 0.704976 (Simulation time: 0 hr 4 min 54 sec) 
Heartbeat CPU 0 instructions: 80000003 cycles: 61137942 heartbeat IPC: 0.539125 cumulative IPC: 0.639409 (Simulation time: 0 hr 5 min 41 sec) 
Heartbeat CPU 0 instructions: 90000001 cycles: 73376485 heartbeat IPC: 0.817091 cumulative IPC: 0.676168 (Simulation time: 0 hr 6 min 32 sec) 
*** Reached end of trace for Core: 0 Repeating trace: traces/spec2k17/srv_58.champsimtrace.xz
Heartbeat CPU 0 instructions: 100000002 cycles: 89392891 heartbeat IPC: 0.62436 cumulative IPC: 0.66513 (Simulation time: 0 hr 7 min 20 sec) 
Heartbeat CPU 0 instructions: 110000000 cycles: 108232568 heartbeat IPC: 0.530795 cumulative IPC: 0.63821 (Simulation time: 0 hr 8 min 9 sec) 
Heartbeat CPU 0 instructions: 120000001 cycles: 121236709 heartbeat IPC: 0.768986 cumulative IPC: 0.654101 (Simulation time: 0 hr 9 min 0 sec) 
*** Reached end of trace for Core: 0 Repeating trace: traces/spec2k17/srv_58.champsimtrace.xz
Heartbeat CPU 0 instructions: 130000000 cycles: 136359445 heartbeat IPC: 0.661256 cumulative IPC: 0.654987 (Simulation time: 0 hr 9 min 52 sec) 
Heartbeat CPU 0 instructions: 140000000 cycles: 155056395 heartbeat IPC: 0.534847 cumulative IPC: 0.639038 (Simulation time: 0 hr 10 min 38 sec) 
Heartbeat CPU 0 instructions: 150000003 cycles: 169036966 heartbeat IPC: 0.715279 cumulative IPC: 0.645922 (Simulation time: 0 hr 11 min 26 sec) 
*** Reached end of trace for Core: 0 Repeating trace: traces/spec2k17/srv_58.champsimtrace.xz
Heartbeat CPU 0 instructions: 160000000 cycles: 183246275 heartbeat IPC: 0.703764 cumulative IPC: 0.650785 (Simulation time: 0 hr 12 min 17 sec) 
Heartbeat CPU 0 instructions: 170000000 cycles: 202018196 heartbeat IPC: 0.532711 cumulative IPC: 0.638982 (Simulation time: 0 hr 13 min 2 sec) 
Heartbeat CPU 0 instructions: 180000000 cycles: 216807034 heartbeat IPC: 0.676186 cumulative IPC: 0.641698 (Simulation time: 0 hr 13 min 49 sec) 
*** Reached end of trace for Core: 0 Repeating trace: traces/spec2k17/srv_58.champsimtrace.xz
Heartbeat CPU 0 instructions: 190000000 cycles: 230077139 heartbeat IPC: 0.753574 cumulative IPC: 0.648576 (Simulation time: 0 hr 14 min 32 sec) 
Heartbeat CPU 0 instructions: 200000000 cycles: 248879588 heartbeat IPC: 0.531846 cumulative IPC: 0.639223 (Simulation time: 0 hr 15 min 19 sec) 
Heartbeat CPU 0 instructions: 210000002 cycles: 264642672 heartbeat IPC: 0.634394 cumulative IPC: 0.638919 (Simulation time: 0 hr 16 min 8 sec) 
*** Reached end of trace for Core: 0 Repeating trace: traces/spec2k17/srv_58.champsimtrace.xz
Heartbeat CPU 0 instructions: 220000000 cycles: 277122939 heartbeat IPC: 0.801265 cumulative IPC: 0.646626 (Simulation time: 0 hr 16 min 57 sec) 
Heartbeat CPU 0 instructions: 230000001 cycles: 295702024 heartbeat IPC: 0.53824 cumulative IPC: 0.639472 (Simulation time: 0 hr 17 min 43 sec) 
Heartbeat CPU 0 instructions: 240000003 cycles: 312466162 heartbeat IPC: 0.596512 cumulative IPC: 0.637057 (Simulation time: 0 hr 18 min 30 sec) 
*** Reached end of trace for Core: 0 Repeating trace: traces/spec2k17/srv_58.champsimtrace.xz
Heartbeat CPU 0 instructions: 250000000 cycles: 323857429 heartbeat IPC: 0.877865 cumulative IPC: 0.645916 (Simulation time: 0 hr 19 min 11 sec) 
Finished CPU 0 instructions: 200000000 cycles: 309637812 cumulative IPC: 0.645916 (Simulation time: 0 hr 19 min 11 sec) 

ChampSim completed all CPUs

Region of Interest Statistics

CPU 0 cumulative IPC: 0.645916 instructions: 200000000 cycles: 309637812
ITLB TOTAL     ACCESS:   36475199  HIT:   35955147  MISS:     520052  HIT %:    98.5742  MISS %:    1.42577   MPKI: 2.60026
ITLB LOAD TRANSLATION ACCESS:   36475199  HIT:   35955147  MISS:     520052  HIT %:    98.5742  MISS %:    1.42577   MPKI: 2.60026
ITLB PREFETCH  REQUESTED:          0  ISSUED:          0  USEFUL:          0  USELESS:          0
ITLB USEFUL LOAD PREFETCHES:          0 PREFETCH ISSUED TO LOWER LEVEL:          0  ACCURACY: -nan
ITLB TIMELY PREFETCHES:          0 LATE PREFETCHES: 0 DROPPED PREFETCHES: 0
ITLB PREFETCHES SAME FILL-ORIGIN LEVEL: 0 DIFFERENT FILL-ORIGIN LEVEL: 0
ITLB AVERAGE MISS LATENCY: 9.01398 cycles
ITLB RQ	ACCESS:   40849529	FORWARD:          0	MERGED:    4206160	TO_CACHE:   36643369

DTLB TOTAL     ACCESS:   43245949  HIT:   42594614  MISS:     651335  HIT %:    98.4939  MISS %:    1.50612   MPKI: 3.25667
DTLB LOAD TRANSLATION ACCESS:   43245949  HIT:   42594614  MISS:     651335  HIT %:    98.4939  MISS %:    1.50612   MPKI: 3.25667
DTLB PREFETCH  REQUESTED:          0  ISSUED:          0  USEFUL:          0  USELESS:          0
DTLB USEFUL LOAD PREFETCHES:          0 PREFETCH ISSUED TO LOWER LEVEL:          0  ACCURACY: -nan
DTLB TIMELY PREFETCHES:          0 LATE PREFETCHES: 0 DROPPED PREFETCHES: 0
DTLB PREFETCHES SAME FILL-ORIGIN LEVEL: 0 DIFFERENT FILL-ORIGIN LEVEL: 0
DTLB AVERAGE MISS LATENCY: 9.04152 cycles
DTLB RQ	ACCESS:   59556852	FORWARD:          0	MERGED:   16281830	TO_CACHE:   43275022

STLB TOTAL     ACCESS:    1171387  HIT:    1170849  MISS:        538  HIT %:    99.9541  MISS %:  0.0459285   MPKI: 0.00269
STLB LOAD TRANSLATION ACCESS:    1171387  HIT:    1170849  MISS:        538  HIT %:    99.9541  MISS %:  0.0459285   MPKI: 0.00269
STLB PREFETCH  REQUESTED:          0  ISSUED:          0  USEFUL:          0  USELESS:          0
STLB USEFUL LOAD PREFETCHES:          0 PREFETCH ISSUED TO LOWER LEVEL:          0  ACCURACY: -nan
STLB TIMELY PREFETCHES:          0 LATE PREFETCHES: 0 DROPPED PREFETCHES: 0
STLB PREFETCHES SAME FILL-ORIGIN LEVEL: 0 DIFFERENT FILL-ORIGIN LEVEL: 0
STLB AVERAGE MISS LATENCY: 55.3011 cycles
STLB RQ	ACCESS:    1171387	FORWARD:          0	MERGED:          0	TO_CACHE:    1171387

STLB Hit, L1D data hit: 0
STLB Hit, L2C data hit: 0
STLB Hit, LLC data hit: 0
STLB Hit, LLC data miss: 0
STLB STLB hints to L2: 0
L1D TOTAL     ACCESS:   59208078  HIT:   58320339  MISS:     887739  HIT %:    98.5006  MISS %:    1.49935   MPKI: 4.4387
L1D LOAD      ACCESS:   38546163  HIT:   37921514  MISS:     624649  HIT %:    98.3795  MISS %:    1.62052   MPKI: 3.12324
L1D RFO       ACCESS:   20661915  HIT:   20398825  MISS:     263090  HIT %:    98.7267  MISS %:    1.27331   MPKI: 1.31545
L1D PREFETCH  REQUESTED:          0  ISSUED:          0  USEFUL:          0  USELESS:          0
L1D USEFUL LOAD PREFETCHES:          0 PREFETCH ISSUED TO LOWER LEVEL:          0  ACCURACY: -nan
L1D TIMELY PREFETCHES:          0 LATE PREFETCHES: 0 DROPPED PREFETCHES: 0
L1D PREFETCHES SAME FILL-ORIGIN LEVEL: 0 DIFFERENT FILL-ORIGIN LEVEL: 0
L1D AVERAGE MISS LATENCY: 18.5628 cycles
L1D RQ	ACCESS:   53978628	FORWARD:          0	MERGED:   15198944	TO_CACHE:   38569422
L1D WQ	ACCESS:   21214489	FORWARD:     210262	MERGED:     227059	TO_CACHE:   20987430

L1D UNIQUE REGIONS ACCESSED: 0
L1D REGIONS CONFLICTS: 0
L1D Cross Page Prefetch Requests: 0
L1D Same Page Prefetch Requests: 0
L1D ROI Sum of L1D PQ occupancy: 0
L1D PREFETCHES PUSHED FROM L2C: 0
L1I TOTAL     ACCESS:   40498962  HIT:   38562862  MISS:    1936100  HIT %:    95.2194  MISS %:    4.78062   MPKI: 9.6805
L1I LOAD      ACCESS:   40498962  HIT:   38562862  MISS:    1936100  HIT %:    95.2194  MISS %:    4.78062   MPKI: 9.6805
L1I PREFETCH  REQUESTED:          0  ISSUED:          0  USEFUL:          0  USELESS:          0
L1I USEFUL LOAD PREFETCHES:          0 PREFETCH ISSUED TO LOWER LEVEL:          0  ACCURACY: -nan
L1I TIMELY PREFETCHES:          0 LATE PREFETCHES: 0 DROPPED PREFETCHES: 0
L1I PREFETCHES SAME FILL-ORIGIN LEVEL: 0 DIFFERENT FILL-ORIGIN LEVEL: 0
L1I AVERAGE MISS LATENCY: 18.6757 cycles
L1I RQ	ACCESS:   63951853	FORWARD:          0	MERGED:   23102324	TO_CACHE:   40849529

BTB TOTAL     ACCESS:   35033009  HIT:   31765673  MISS:    3267336  HIT %:    90.6736  MISS %:    9.32645   MPKI: 16.3367
BTB BRANCH_DIRECT_JUMP	ACCESS:    3530101  HIT:    3387873  MISS:     142228
BTB BRANCH_INDIRECT	ACCESS:   14433198  HIT:   13493749  MISS:     939449
BTB BRANCH_CONDITIONAL	ACCESS:    7608282  HIT:    7427963  MISS:     180319
BTB BRANCH_DIRECT_CALL	ACCESS:    2343708  HIT:    2092536  MISS:     251172
BTB BRANCH_INDIRECT_CALL	ACCESS:    2387048  HIT:    2184647  MISS:     202401
BTB BRANCH_RETURN	ACCESS:    4730672  HIT:    3178905  MISS:    1551767
BTB BRANCH_OTHER ACCESS:          0  HIT:          0  MISS:          0

L2C TOTAL     ACCESS:    3650110  HIT:    3164824  MISS:     485286  HIT %:    86.7049  MISS %:    13.2951   MPKI: 2.42643
L2C LOAD      ACCESS:    2560749  HIT:    2220896  MISS:     339853  HIT %:    86.7284  MISS %:    13.2716   MPKI: 1.69927
L2C DATA LOAD MPKI: 0.21067
L2C INSTRUCTION LOAD MPKI: 1.48859
L2C RFO       ACCESS:     263090  HIT:     200038  MISS:      63052  HIT %:    76.0341  MISS %:    23.9659   MPKI: 0.31526
L2C PREFETCH  ACCESS:     405803  HIT:     333623  MISS:      72180  HIT %:     82.213  MISS %:     17.787   MPKI: 0.3609
AGUS PREFETCH L1 MISS: 0
L2C DATA PREFETCH MPKI: 0.3609
L2C INSTRUCTION PREFETCH MPKI: 0
L2C WRITEBACK ACCESS:     419794  HIT:     410135  MISS:       9659  HIT %:    97.6991  MISS %:    2.30089   MPKI: 0.048295
L2C LOAD TRANSLATION ACCESS:        674  HIT:        132  MISS:        542  HIT %:    19.5846  MISS %:    80.4154   MPKI: 0.00271
L2C PREFETCH  REQUESTED:     412584  ISSUED:     412584  USEFUL:      55801  USELESS:      16388
L2C USEFUL LOAD PREFETCHES:      55801 PREFETCH ISSUED TO LOWER LEVEL:      75165  ACCURACY: 74.238
L2C TIMELY PREFETCHES:      55801 LATE PREFETCHES: 2985 DROPPED PREFETCHES: 0
L2C PREFETCHES SAME FILL-ORIGIN LEVEL: 75165 DIFFERENT FILL-ORIGIN LEVEL: 0
L2C AVERAGE MISS LATENCY: 29.5131 cycles
L2C RQ	ACCESS:    2824513	FORWARD:          0	MERGED:          0	TO_CACHE:    2824513
L2C WQ	ACCESS:     419794	FORWARD:         44	MERGED:          0	TO_CACHE:     419794
L2C PQ	ACCESS:     412584	FORWARD:          0	MERGED:          0	TO_CACHE:     412540

L2C Instructions Evicting Data 99909
L2C Translations Evicting Data 374
L2C Data Evicting Data 81955
L2C Instructions Evicting Instructions 197643
L2C Translations Evicting Instructions 161
L2C Data Evicting Instructions 95070
L2C Instructions Evicting Translations 167
L2C Translations Evicting Translations 7
L2C Data Evicting Translations 337
L2C Dense regions hint from L2: 0
PSCL5 TOTAL     ACCESS:        538  HIT:        538  MISS:          0  HIT %:        100  MISS %:          0   MPKI: 0
PSCL5 LOAD TRANSLATION ACCESS:        538  HIT:        538  MISS:          0  HIT %:        100  MISS %:          0   MPKI: 0
PSCL5 PREFETCH  REQUESTED:          0  ISSUED:          0  USEFUL:          0  USELESS:          0
PSCL5 USEFUL LOAD PREFETCHES:          0 PREFETCH ISSUED TO LOWER LEVEL:          0  ACCURACY: -nan
PSCL5 TIMELY PREFETCHES:          0 LATE PREFETCHES: 0 DROPPED PREFETCHES: 0
PSCL5 PREFETCHES SAME FILL-ORIGIN LEVEL: 0 DIFFERENT FILL-ORIGIN LEVEL: 0

PSCL4 TOTAL     ACCESS:        538  HIT:        538  MISS:          0  HIT %:        100  MISS %:          0   MPKI: 0
PSCL4 LOAD TRANSLATION ACCESS:        538  HIT:        538  MISS:          0  HIT %:        100  MISS %:          0   MPKI: 0
PSCL4 PREFETCH  REQUESTED:          0  ISSUED:          0  USEFUL:          0  USELESS:          0
PSCL4 USEFUL LOAD PREFETCHES:          0 PREFETCH ISSUED TO LOWER LEVEL:          0  ACCURACY: -nan
PSCL4 TIMELY PREFETCHES:          0 LATE PREFETCHES: 0 DROPPED PREFETCHES: 0
PSCL4 PREFETCHES SAME FILL-ORIGIN LEVEL: 0 DIFFERENT FILL-ORIGIN LEVEL: 0

PSCL3 TOTAL     ACCESS:        358  HIT:        319  MISS:         39  HIT %:    89.1061  MISS %:    10.8939   MPKI: 0.000195
PSCL3 LOAD TRANSLATION ACCESS:        358  HIT:        319  MISS:         39  HIT %:    89.1061  MISS %:    10.8939   MPKI: 0.000195
PSCL3 PREFETCH  REQUESTED:          0  ISSUED:          0  USEFUL:          0  USELESS:          0
PSCL3 USEFUL LOAD PREFETCHES:          0 PREFETCH ISSUED TO LOWER LEVEL:          0  ACCURACY: -nan
PSCL3 TIMELY PREFETCHES:          0 LATE PREFETCHES: 0 DROPPED PREFETCHES: 0
PSCL3 PREFETCHES SAME FILL-ORIGIN LEVEL: 0 DIFFERENT FILL-ORIGIN LEVEL: 0

PSCL2 TOTAL     ACCESS:        538  HIT:        441  MISS:         97  HIT %:    81.9703  MISS %:    18.0297   MPKI: 0.000485
PSCL2 LOAD TRANSLATION ACCESS:        538  HIT:        441  MISS:         97  HIT %:    81.9703  MISS %:    18.0297   MPKI: 0.000485
PSCL2 PREFETCH  REQUESTED:          0  ISSUED:          0  USEFUL:          0  USELESS:          0
PSCL2 USEFUL LOAD PREFETCHES:          0 PREFETCH ISSUED TO LOWER LEVEL:          0  ACCURACY: -nan
PSCL2 TIMELY PREFETCHES:          0 LATE PREFETCHES: 0 DROPPED PREFETCHES: 0
PSCL2 PREFETCHES SAME FILL-ORIGIN LEVEL: 0 DIFFERENT FILL-ORIGIN LEVEL: 0

LLC TOTAL     ACCESS:     561504  HIT:     561033  MISS:        471  HIT %:    99.9161  MISS %:  0.0838819   MPKI: 0.002355
LLC LOAD      ACCESS:     337000  HIT:     336828  MISS:        172  HIT %:     99.949  MISS %:  0.0510386   MPKI: 0.00086
LLC RFO       ACCESS:      62920  HIT:      62920  MISS:          0  HIT %:        100  MISS %:          0   MPKI: 0
LLC PREFETCH  ACCESS:      75164  HIT:      74877  MISS:        287  HIT %:    99.6182  MISS %:   0.381832   MPKI: 0.001435
AGUS PREFETCH L1 MISS: 0
LLC WRITEBACK ACCESS:      85878  HIT:      85877  MISS:          1  HIT %:    99.9988  MISS %: 0.00116444   MPKI: 5e-06
LLC LOAD TRANSLATION ACCESS:        542  HIT:        531  MISS:         11  HIT %:    97.9705  MISS %:    2.02952   MPKI: 5.5e-05
LLC PREFETCH  REQUESTED:          0  ISSUED:          0  USEFUL:        297  USELESS:        204
LLC USEFUL LOAD PREFETCHES:        297 PREFETCH ISSUED TO LOWER LEVEL:        287  ACCURACY: 103.484
LLC TIMELY PREFETCHES:        297 LATE PREFETCHES: 0 DROPPED PREFETCHES: 0
LLC PREFETCHES SAME FILL-ORIGIN LEVEL: 0 DIFFERENT FILL-ORIGIN LEVEL: 0
LLC AVERAGE MISS LATENCY: 145.739 cycles
LLC RQ	ACCESS:     400462	FORWARD:          0	MERGED:          0	TO_CACHE:     400462
LLC WQ	ACCESS:      85878	FORWARD:          1	MERGED:          0	TO_CACHE:      85878
LLC PQ	ACCESS:      75165	FORWARD:          0	MERGED:          0	TO_CACHE:      75164

LLC Dense regions hint to LLC: 0

RAW hits: 3369969
Loads Generated: 57348600
Loads sent to L1D: 53978628
Stores Generated: 21214489
Stores sent to L1D: 21214489
Major fault: 0 Minor fault: 1185
Allocated PAGES: 1185
[Bingo] PHT Access: 123846
[Bingo] PHT Hit PC+Addr: 77020
[Bingo] PHT Hit PC+Offs: 3055
[Bingo] PHT Miss: 43771
[Bingo] Prefetch PC+Addr: 0
[Bingo] Prefetch PC+Offs: 0
[Bingo] Useful PC+Addr: 0
[Bingo] Useful PC+Offs: 0
[Bingo] Useless PC+Addr: 0
[Bingo] Useless PC+Offs: 0
[Bingo] L1 Prefetch per Region: 0
[Bingo] L2 Prefetch per Region: 6.29444
[Bingo] L3 Prefetch per Region: 0
[Bingo] No Prefetch per Region: 25.7056
[Bingo] Number of Voters Mean: 4.16563
[Bingo] Number of Voters SD: 6.33224
PHT read accesses: 293605
PHT write accesses: 70535
AT read accesses: 513887
AT write accesses: 562083
FT read accesses: 237246
FT write accesses: 123846
PS read accesses: 165799
PS write accesses: 80075
PHT tag read accesses: 2009311
PHT tag write accesses: 147555
AT tag read accesses: 20976924
AT tag write accesses: 584415
FT tag read accesses: 15517534
FT tag write accesses: 281316
PS tag read accesses: 12841273
PS tag write accesses: 245067

DRAM Statistics
 CHANNEL 0
 RQ ROW_BUFFER_HIT:        122  ROW_BUFFER_MISS:        348
 DBUS_CONGESTED:          0
 WQ ROW_BUFFER_HIT:          0  ROW_BUFFER_MISS:          0  FULL:          0

 AVG_CONGESTED_CYCLE: -
 All warmup complete: 2
Channel 0 Bank busy for read cycles: 0
Channel 0 Bank busy for write cycles: 0
Channel 0
Rank 0
0banks busy for read cycles: 309586499
0banks busy for write cycles: 0
1banks busy for read cycles: 47659
1banks busy for write cycles: 0
2banks busy for read cycles: 2691
2banks busy for write cycles: 0
3banks busy for read cycles: 166
3banks busy for write cycles: 0
4banks busy for read cycles: 253
4banks busy for write cycles: 0
5banks busy for read cycles: 156
5banks busy for write cycles: 0
6banks busy for read cycles: 32
6banks busy for write cycles: 0
7banks busy for read cycles: 79
7banks busy for write cycles: 0
8banks busy for read cycles: 278
8banks busy for write cycles: 0

CPU 0 Branch Prediction Accuracy: 99.8678% MPKI: 0.264215 Average ROB Occupancy at Mispredict: 40.3406
Branch types
NOT_BRANCH: 160022998 80.0115%
BRANCH_DIRECT_JUMP: 3530101 1.76505%
BRANCH_INDIRECT: 14433198 7.2166%
BRANCH_CONDITIONAL: 12551976 6.27599%
BRANCH_DIRECT_CALL: 2343708 1.17185%
BRANCH_INDIRECT_CALL: 2387048 1.19352%
BRANCH_RETURN: 4730672 2.36534%
BRANCH_OTHER: 0 0%

DRAM PAGES: 1048576
Allocated PAGES: 1185
