
*** ChampSim Multicore Out-of-Order Simulator ***

Warmup Instructions: 50000000
Simulation Instructions: 200000000
Number of CPUs: 1
LLC sets: 2048
LLC ways: 16
Off-chip DRAM Size: 4096 MB Channels: 1 Width: 64-bit Data Rate: 6400 MT/s
CPU 0 runs traces/spec2k17/srv_65.champsimtrace.xz
.xz
BTB has LRU replacement policy
ITLB has LRU replacement policy
DTLB has LRU replacement policy
STLB has LRU replacement policy
L1I has LRU replacement policy
L1D has LRU replacement policy
Bingo PHT WAYS: 16 and PHT_SIZE: 16384
Initialize SRRIP state for L2C
Initialize DRRIP state for LLC
Heartbeat CPU 0 instructions: 10000003 cycles: 2764878 heartbeat IPC: 3.6168 cumulative IPC: 3.6168 (Simulation time: 0 hr 0 min 35 sec) 
Heartbeat CPU 0 instructions: 20000001 cycles: 5524261 heartbeat IPC: 3.624 cumulative IPC: 3.62039 (Simulation time: 0 hr 1 min 11 sec) 
Heartbeat CPU 0 instructions: 30000003 cycles: 8281139 heartbeat IPC: 3.62729 cumulative IPC: 3.62269 (Simulation time: 0 hr 1 min 46 sec) 
*** Reached end of trace for Core: 0 Repeating trace: traces/spec2k17/srv_65.champsimtrace.xz
Heartbeat CPU 0 instructions: 40000003 cycles: 11039001 heartbeat IPC: 3.626 cumulative IPC: 3.62352 (Simulation time: 0 hr 2 min 21 sec) 
Heartbeat CPU 0 instructions: 50000001 cycles: 13798352 heartbeat IPC: 3.62404 cumulative IPC: 3.62362 (Simulation time: 0 hr 2 min 54 sec) 

Warmup complete CPU 0 instructions: 50000001 cycles: 13798352 (Simulation time: 0 hr 2 min 54 sec) 

Heartbeat CPU 0 instructions: 60000003 cycles: 34745845 heartbeat IPC: 0.477384 cumulative IPC: 0.477384 (Simulation time: 0 hr 3 min 45 sec) 
*** Reached end of trace for Core: 0 Repeating trace: traces/spec2k17/srv_65.champsimtrace.xz
Heartbeat CPU 0 instructions: 70000003 cycles: 55971103 heartbeat IPC: 0.471137 cumulative IPC: 0.47424 (Simulation time: 0 hr 4 min 39 sec) 
Heartbeat CPU 0 instructions: 80000003 cycles: 77212526 heartbeat IPC: 0.470778 cumulative IPC: 0.47308 (Simulation time: 0 hr 5 min 33 sec) 
Heartbeat CPU 0 instructions: 90000001 cycles: 98345861 heartbeat IPC: 0.473186 cumulative IPC: 0.473107 (Simulation time: 0 hr 6 min 24 sec) 
*** Reached end of trace for Core: 0 Repeating trace: traces/spec2k17/srv_65.champsimtrace.xz
Heartbeat CPU 0 instructions: 100000002 cycles: 119582109 heartbeat IPC: 0.470893 cumulative IPC: 0.472662 (Simulation time: 0 hr 7 min 16 sec) 
Heartbeat CPU 0 instructions: 110000000 cycles: 140665854 heartbeat IPC: 0.474299 cumulative IPC: 0.472934 (Simulation time: 0 hr 8 min 4 sec) 
Heartbeat CPU 0 instructions: 120000003 cycles: 161916883 heartbeat IPC: 0.470566 cumulative IPC: 0.472594 (Simulation time: 0 hr 8 min 59 sec) 
*** Reached end of trace for Core: 0 Repeating trace: traces/spec2k17/srv_65.champsimtrace.xz
Heartbeat CPU 0 instructions: 130000000 cycles: 183088421 heartbeat IPC: 0.472332 cumulative IPC: 0.472562 (Simulation time: 0 hr 9 min 44 sec) 
Heartbeat CPU 0 instructions: 140000003 cycles: 204236962 heartbeat IPC: 0.472846 cumulative IPC: 0.472593 (Simulation time: 0 hr 10 min 34 sec) 
Heartbeat CPU 0 instructions: 150000001 cycles: 225417790 heartbeat IPC: 0.472125 cumulative IPC: 0.472546 (Simulation time: 0 hr 11 min 27 sec) 
*** Reached end of trace for Core: 0 Repeating trace: traces/spec2k17/srv_65.champsimtrace.xz
Heartbeat CPU 0 instructions: 160000003 cycles: 246499988 heartbeat IPC: 0.474334 cumulative IPC: 0.472708 (Simulation time: 0 hr 12 min 16 sec) 
Heartbeat CPU 0 instructions: 170000002 cycles: 267754638 heartbeat IPC: 0.470485 cumulative IPC: 0.472522 (Simulation time: 0 hr 13 min 8 sec) 
Heartbeat CPU 0 instructions: 180000000 cycles: 288939452 heartbeat IPC: 0.472036 cumulative IPC: 0.472485 (Simulation time: 0 hr 13 min 59 sec) 
*** Reached end of trace for Core: 0 Repeating trace: traces/spec2k17/srv_65.champsimtrace.xz
Heartbeat CPU 0 instructions: 190000003 cycles: 309795431 heartbeat IPC: 0.479479 cumulative IPC: 0.472978 (Simulation time: 0 hr 14 min 49 sec) 
Heartbeat CPU 0 instructions: 200000000 cycles: 331166721 heartbeat IPC: 0.467917 cumulative IPC: 0.472637 (Simulation time: 0 hr 15 min 40 sec) 
Heartbeat CPU 0 instructions: 210000000 cycles: 352362831 heartbeat IPC: 0.471785 cumulative IPC: 0.472584 (Simulation time: 0 hr 16 min 32 sec) 
*** Reached end of trace for Core: 0 Repeating trace: traces/spec2k17/srv_65.champsimtrace.xz
Heartbeat CPU 0 instructions: 220000000 cycles: 373160807 heartbeat IPC: 0.480816 cumulative IPC: 0.47306 (Simulation time: 0 hr 17 min 23 sec) 
Heartbeat CPU 0 instructions: 230000001 cycles: 394436659 heartbeat IPC: 0.470016 cumulative IPC: 0.47289 (Simulation time: 0 hr 17 min 58 sec) 
Heartbeat CPU 0 instructions: 240000000 cycles: 415702843 heartbeat IPC: 0.47023 cumulative IPC: 0.472749 (Simulation time: 0 hr 18 min 31 sec) 
*** Reached end of trace for Core: 0 Repeating trace: traces/spec2k17/srv_65.champsimtrace.xz
Heartbeat CPU 0 instructions: 250000002 cycles: 436532859 heartbeat IPC: 0.480077 cumulative IPC: 0.47311 (Simulation time: 0 hr 19 min 2 sec) 
Finished CPU 0 instructions: 200000001 cycles: 422734507 cumulative IPC: 0.47311 (Simulation time: 0 hr 19 min 2 sec) 

ChampSim completed all CPUs

Region of Interest Statistics

CPU 0 cumulative IPC: 0.47311 instructions: 200000001 cycles: 422734507
ITLB TOTAL     ACCESS:   31222748  HIT:   30420038  MISS:     802710  HIT %:    97.4291  MISS %:    2.57091   MPKI: 4.01355
ITLB LOAD TRANSLATION ACCESS:   31222748  HIT:   30420038  MISS:     802710  HIT %:    97.4291  MISS %:    2.57091   MPKI: 4.01355
ITLB PREFETCH  REQUESTED:          0  ISSUED:          0  USEFUL:          0  USELESS:          0
ITLB USEFUL LOAD PREFETCHES:          0 PREFETCH ISSUED TO LOWER LEVEL:          0  ACCURACY: -nan
ITLB TIMELY PREFETCHES:          0 LATE PREFETCHES: 0 DROPPED PREFETCHES: 0
ITLB PREFETCHES SAME FILL-ORIGIN LEVEL: 0 DIFFERENT FILL-ORIGIN LEVEL: 0
ITLB AVERAGE MISS LATENCY: 13.3911 cycles
ITLB RQ	ACCESS:   38107422	FORWARD:          0	MERGED:    6681801	TO_CACHE:   31425621

DTLB TOTAL     ACCESS:   37318065  HIT:   34969610  MISS:    2348455  HIT %:    93.7069  MISS %:    6.29308   MPKI: 11.7423
DTLB LOAD TRANSLATION ACCESS:   37318065  HIT:   34969610  MISS:    2348455  HIT %:    93.7069  MISS %:    6.29308   MPKI: 11.7423
DTLB PREFETCH  REQUESTED:          0  ISSUED:          0  USEFUL:          0  USELESS:          0
DTLB USEFUL LOAD PREFETCHES:          0 PREFETCH ISSUED TO LOWER LEVEL:          0  ACCURACY: -nan
DTLB TIMELY PREFETCHES:          0 LATE PREFETCHES: 0 DROPPED PREFETCHES: 0
DTLB PREFETCHES SAME FILL-ORIGIN LEVEL: 0 DIFFERENT FILL-ORIGIN LEVEL: 0
DTLB AVERAGE MISS LATENCY: 13.8824 cycles
DTLB RQ	ACCESS:   47667066	FORWARD:          0	MERGED:   10197311	TO_CACHE:   37469755

STLB TOTAL     ACCESS:    3151165  HIT:    2836873  MISS:     314292  HIT %:    90.0262  MISS %:    9.97384   MPKI: 1.57146
STLB LOAD TRANSLATION ACCESS:    3151165  HIT:    2836873  MISS:     314292  HIT %:    90.0262  MISS %:    9.97384   MPKI: 1.57146
STLB PREFETCH  REQUESTED:          0  ISSUED:          0  USEFUL:          0  USELESS:          0
STLB USEFUL LOAD PREFETCHES:          0 PREFETCH ISSUED TO LOWER LEVEL:          0  ACCURACY: -nan
STLB TIMELY PREFETCHES:          0 LATE PREFETCHES: 0 DROPPED PREFETCHES: 0
STLB PREFETCHES SAME FILL-ORIGIN LEVEL: 0 DIFFERENT FILL-ORIGIN LEVEL: 0
STLB AVERAGE MISS LATENCY: 47.4087 cycles
STLB RQ	ACCESS:    3151165	FORWARD:          0	MERGED:          0	TO_CACHE:    3151165

STLB Hit, L1D data hit: 0
STLB Hit, L2C data hit: 0
STLB Hit, LLC data hit: 0
STLB Hit, LLC data miss: 0
STLB STLB hints to L2: 0
L1D TOTAL     ACCESS:   47184997  HIT:   44744767  MISS:    2440230  HIT %:    94.8284  MISS %:    5.17162   MPKI: 12.2011
L1D LOAD      ACCESS:   27685748  HIT:   25576567  MISS:    2109181  HIT %:    92.3817  MISS %:    7.61829   MPKI: 10.5459
L1D RFO       ACCESS:   19499249  HIT:   19168200  MISS:     331049  HIT %:    98.3022  MISS %:    1.69775   MPKI: 1.65524
L1D PREFETCH  REQUESTED:          0  ISSUED:          0  USEFUL:          0  USELESS:          0
L1D USEFUL LOAD PREFETCHES:          0 PREFETCH ISSUED TO LOWER LEVEL:          0  ACCURACY: -nan
L1D TIMELY PREFETCHES:          0 LATE PREFETCHES: 0 DROPPED PREFETCHES: 0
L1D PREFETCHES SAME FILL-ORIGIN LEVEL: 0 DIFFERENT FILL-ORIGIN LEVEL: 0
L1D AVERAGE MISS LATENCY: 28.3469 cycles
L1D RQ	ACCESS:   42187288	FORWARD:          0	MERGED:   14203085	TO_CACHE:   27761529
L1D WQ	ACCESS:   20212215	FORWARD:     222674	MERGED:     306678	TO_CACHE:   19905537

L1D UNIQUE REGIONS ACCESSED: 0
L1D REGIONS CONFLICTS: 0
L1D Cross Page Prefetch Requests: 0
L1D Same Page Prefetch Requests: 0
L1D ROI Sum of L1D PQ occupancy: 0
L1D PREFETCHES PUSHED FROM L2C: 0
L1I TOTAL     ACCESS:   36278064  HIT:   31173630  MISS:    5104434  HIT %:    85.9297  MISS %:    14.0703   MPKI: 25.5222
L1I LOAD      ACCESS:   36278064  HIT:   31173630  MISS:    5104434  HIT %:    85.9297  MISS %:    14.0703   MPKI: 25.5222
L1I PREFETCH  REQUESTED:          0  ISSUED:          0  USEFUL:          0  USELESS:          0
L1I USEFUL LOAD PREFETCHES:          0 PREFETCH ISSUED TO LOWER LEVEL:          0  ACCURACY: -nan
L1I TIMELY PREFETCHES:          0 LATE PREFETCHES: 0 DROPPED PREFETCHES: 0
L1I PREFETCHES SAME FILL-ORIGIN LEVEL: 0 DIFFERENT FILL-ORIGIN LEVEL: 0
L1I AVERAGE MISS LATENCY: 25.4659 cycles
L1I RQ	ACCESS:   57184884	FORWARD:          0	MERGED:   19077462	TO_CACHE:   38107422

BTB TOTAL     ACCESS:   22272077  HIT:   18096398  MISS:    4175679  HIT %:    81.2515  MISS %:    18.7485   MPKI: 20.8784
BTB BRANCH_DIRECT_JUMP	ACCESS:    1788227  HIT:    1559566  MISS:     228661
BTB BRANCH_INDIRECT	ACCESS:    9557706  HIT:    7536372  MISS:    2021334
BTB BRANCH_CONDITIONAL	ACCESS:    4545175  HIT:    4171652  MISS:     373523
BTB BRANCH_DIRECT_CALL	ACCESS:    2503115  HIT:    2056656  MISS:     446459
BTB BRANCH_INDIRECT_CALL	ACCESS:     686553  HIT:     645372  MISS:      41181
BTB BRANCH_RETURN	ACCESS:    3191301  HIT:    2126780  MISS:    1064521
BTB BRANCH_OTHER ACCESS:          0  HIT:          0  MISS:          0

L2C TOTAL     ACCESS:   10359487  HIT:    7119756  MISS:    3239731  HIT %:    68.7269  MISS %:    31.2731   MPKI: 16.1987
L2C LOAD      ACCESS:    7213496  HIT:    4859793  MISS:    2353703  HIT %:    67.3708  MISS %:    32.6292   MPKI: 11.7685
L2C DATA LOAD MPKI: 2.232
L2C INSTRUCTION LOAD MPKI: 9.53651
L2C RFO       ACCESS:     331049  HIT:     188779  MISS:     142270  HIT %:    57.0245  MISS %:    42.9755   MPKI: 0.71135
L2C PREFETCH  ACCESS:    1390495  HIT:     856386  MISS:     534109  HIT %:    61.5886  MISS %:    38.4114   MPKI: 2.67054
AGUS PREFETCH L1 MISS: 0
L2C DATA PREFETCH MPKI: 2.67054
L2C INSTRUCTION PREFETCH MPKI: 0
L2C WRITEBACK ACCESS:    1008423  HIT:     974326  MISS:      34097  HIT %:    96.6188  MISS %:    3.38122   MPKI: 0.170485
L2C LOAD TRANSLATION ACCESS:     416024  HIT:     240472  MISS:     175552  HIT %:    57.8024  MISS %:    42.1976   MPKI: 0.87776
L2C PREFETCH  REQUESTED:    1434248  ISSUED:    1434248  USEFUL:     396414  USELESS:     137633
L2C USEFUL LOAD PREFETCHES:     396414 PREFETCH ISSUED TO LOWER LEVEL:     545802  ACCURACY: 72.6296
L2C TIMELY PREFETCHES:     396414 LATE PREFETCHES: 11693 DROPPED PREFETCHES: 0
L2C PREFETCHES SAME FILL-ORIGIN LEVEL: 545802 DIFFERENT FILL-ORIGIN LEVEL: 0
L2C AVERAGE MISS LATENCY: 45.828 cycles
L2C RQ	ACCESS:    7960688	FORWARD:          0	MERGED:          0	TO_CACHE:    7960569
L2C WQ	ACCESS:    1008423	FORWARD:        120	MERGED:          0	TO_CACHE:    1008423
L2C PQ	ACCESS:    1434248	FORWARD:          0	MERGED:          0	TO_CACHE:    1434247

L2C Instructions Evicting Data 671899
L2C Translations Evicting Data 63691
L2C Data Evicting Data 407816
L2C Instructions Evicting Instructions 1133834
L2C Translations Evicting Instructions 102230
L2C Data Evicting Instructions 651924
L2C Instructions Evicting Translations 101569
L2C Translations Evicting Translations 9631
L2C Data Evicting Translations 63040
L2C Dense regions hint from L2: 0
PSCL5 TOTAL     ACCESS:     314292  HIT:     314292  MISS:          0  HIT %:        100  MISS %:          0   MPKI: 0
PSCL5 LOAD TRANSLATION ACCESS:     314292  HIT:     314292  MISS:          0  HIT %:        100  MISS %:          0   MPKI: 0
PSCL5 PREFETCH  REQUESTED:          0  ISSUED:          0  USEFUL:          0  USELESS:          0
PSCL5 USEFUL LOAD PREFETCHES:          0 PREFETCH ISSUED TO LOWER LEVEL:          0  ACCURACY: -nan
PSCL5 TIMELY PREFETCHES:          0 LATE PREFETCHES: 0 DROPPED PREFETCHES: 0
PSCL5 PREFETCHES SAME FILL-ORIGIN LEVEL: 0 DIFFERENT FILL-ORIGIN LEVEL: 0

PSCL4 TOTAL     ACCESS:     307488  HIT:     305936  MISS:       1552  HIT %:    99.4953  MISS %:   0.504735   MPKI: 0.00776
PSCL4 LOAD TRANSLATION ACCESS:     307488  HIT:     305936  MISS:       1552  HIT %:    99.4953  MISS %:   0.504735   MPKI: 0.00776
PSCL4 PREFETCH  REQUESTED:          0  ISSUED:          0  USEFUL:          0  USELESS:          0
PSCL4 USEFUL LOAD PREFETCHES:          0 PREFETCH ISSUED TO LOWER LEVEL:          0  ACCURACY: -nan
PSCL4 TIMELY PREFETCHES:          0 LATE PREFETCHES: 0 DROPPED PREFETCHES: 0
PSCL4 PREFETCHES SAME FILL-ORIGIN LEVEL: 0 DIFFERENT FILL-ORIGIN LEVEL: 0

PSCL3 TOTAL     ACCESS:     313123  HIT:     311571  MISS:       1552  HIT %:    99.5043  MISS %:   0.495652   MPKI: 0.00776
PSCL3 LOAD TRANSLATION ACCESS:     313123  HIT:     311571  MISS:       1552  HIT %:    99.5043  MISS %:   0.495652   MPKI: 0.00776
PSCL3 PREFETCH  REQUESTED:          0  ISSUED:          0  USEFUL:          0  USELESS:          0
PSCL3 USEFUL LOAD PREFETCHES:          0 PREFETCH ISSUED TO LOWER LEVEL:          0  ACCURACY: -nan
PSCL3 TIMELY PREFETCHES:          0 LATE PREFETCHES: 0 DROPPED PREFETCHES: 0
PSCL3 PREFETCHES SAME FILL-ORIGIN LEVEL: 0 DIFFERENT FILL-ORIGIN LEVEL: 0

PSCL2 TOTAL     ACCESS:     314292  HIT:     215664  MISS:      98628  HIT %:     68.619  MISS %:     31.381   MPKI: 0.49314
PSCL2 LOAD TRANSLATION ACCESS:     314292  HIT:     215664  MISS:      98628  HIT %:     68.619  MISS %:     31.381   MPKI: 0.49314
PSCL2 PREFETCH  REQUESTED:          0  ISSUED:          0  USEFUL:          0  USELESS:          0
PSCL2 USEFUL LOAD PREFETCHES:          0 PREFETCH ISSUED TO LOWER LEVEL:          0  ACCURACY: -nan
PSCL2 TIMELY PREFETCHES:          0 LATE PREFETCHES: 0 DROPPED PREFETCHES: 0
PSCL2 PREFETCHES SAME FILL-ORIGIN LEVEL: 0 DIFFERENT FILL-ORIGIN LEVEL: 0

LLC TOTAL     ACCESS:    3639280  HIT:    3319996  MISS:     319284  HIT %:    91.2267  MISS %:    8.77327   MPKI: 1.59642
LLC LOAD      ACCESS:    2342044  HIT:    2280735  MISS:      61309  HIT %:    97.3822  MISS %:    2.61776   MPKI: 0.306545
LLC RFO       ACCESS:     142227  HIT:      97845  MISS:      44382  HIT %:     68.795  MISS %:     31.205   MPKI: 0.22191
LLC PREFETCH  ACCESS:     545800  HIT:     344745  MISS:     201055  HIT %:    63.1632  MISS %:    36.8368   MPKI: 1.00527
AGUS PREFETCH L1 MISS: 0
LLC WRITEBACK ACCESS:     433657  HIT:     431621  MISS:       2036  HIT %:    99.5305  MISS %:   0.469495   MPKI: 0.01018
LLC LOAD TRANSLATION ACCESS:     175552  HIT:     165050  MISS:      10502  HIT %:    94.0177  MISS %:    5.98227   MPKI: 0.05251
LLC PREFETCH  REQUESTED:          0  ISSUED:          0  USEFUL:       4616  USELESS:     195678
LLC USEFUL LOAD PREFETCHES:       4616 PREFETCH ISSUED TO LOWER LEVEL:     201055  ACCURACY: 2.29589
LLC TIMELY PREFETCHES:       4616 LATE PREFETCHES: 0 DROPPED PREFETCHES: 0
LLC PREFETCHES SAME FILL-ORIGIN LEVEL: 0 DIFFERENT FILL-ORIGIN LEVEL: 0
LLC AVERAGE MISS LATENCY: 164.863 cycles
LLC RQ	ACCESS:    2659832	FORWARD:          0	MERGED:          0	TO_CACHE:    2659823
LLC WQ	ACCESS:     433657	FORWARD:         11	MERGED:          0	TO_CACHE:     433657
LLC PQ	ACCESS:     545802	FORWARD:          0	MERGED:          0	TO_CACHE:     545800

LLC Dense regions hint to LLC: 0

RAW hits: 2640107
Loads Generated: 44827397
Loads sent to L1D: 42187288
Stores Generated: 20212209
Stores sent to L1D: 20212215
Major fault: 0 Minor fault: 5727
Allocated PAGES: 5727
[Bingo] PHT Access: 832485
[Bingo] PHT Hit PC+Addr: 392179
[Bingo] PHT Hit PC+Offs: 46352
[Bingo] PHT Miss: 393954
[Bingo] Prefetch PC+Addr: 0
[Bingo] Prefetch PC+Offs: 0
[Bingo] Useful PC+Addr: 0
[Bingo] Useful PC+Offs: 0
[Bingo] Useless PC+Addr: 0
[Bingo] Useless PC+Offs: 0
[Bingo] L1 Prefetch per Region: 0
[Bingo] L2 Prefetch per Region: 4.29547
[Bingo] L3 Prefetch per Region: 0
[Bingo] No Prefetch per Region: 27.7045
[Bingo] Number of Voters Mean: 4.83159
[Bingo] Number of Voters SD: 5.62605
PHT read accesses: 5091825
PHT write accesses: 327576
AT read accesses: 1343420
AT write accesses: 1600382
FT read accesses: 1011537
FT write accesses: 832485
PS read accesses: 887784
PS write accesses: 438531
PHT tag read accesses: 13456526
PHT tag write accesses: 719755
AT tag read accesses: 100773219
AT tag write accesses: 1670998
FT tag read accesses: 99721471
FT tag write accesses: 1512671
PS tag read accesses: 48351382
PS tag write accesses: 1325060

DRAM Statistics
 CHANNEL 0
 RQ ROW_BUFFER_HIT:     110615  ROW_BUFFER_MISS:     206632
 DBUS_CONGESTED:        165
 WQ ROW_BUFFER_HIT:      25405  ROW_BUFFER_MISS:     187361  FULL:          0

 AVG_CONGESTED_CYCLE: 4
 All warmup complete: 2
Channel 0 Bank busy for read cycles: 0
Channel 0 Bank busy for write cycles: 0
Channel 0
Rank 0
0banks busy for read cycles: 396869225
0banks busy for write cycles: 40605
1banks busy for read cycles: 7527265
1banks busy for write cycles: 4435628
2banks busy for read cycles: 1970579
2banks busy for write cycles: 1609661
3banks busy for read cycles: 1110391
3banks busy for write cycles: 1130721
4banks busy for read cycles: 876591
4banks busy for write cycles: 979149
5banks busy for read cycles: 588915
5banks busy for write cycles: 875736
6banks busy for read cycles: 453136
6banks busy for write cycles: 839004
7banks busy for read cycles: 510572
7banks busy for write cycles: 852672
8banks busy for read cycles: 1123025
8banks busy for write cycles: 941633

CPU 0 Branch Prediction Accuracy: 99.8638% MPKI: 0.244845 Average ROB Occupancy at Mispredict: 48.807
Branch types
NOT_BRANCH: 164053662 82.0268%
BRANCH_DIRECT_JUMP: 1788227 0.894113%
BRANCH_INDIRECT: 9557706 4.77885%
BRANCH_CONDITIONAL: 18219125 9.10956%
BRANCH_DIRECT_CALL: 2503115 1.25156%
BRANCH_INDIRECT_CALL: 686553 0.343276%
BRANCH_RETURN: 3191301 1.59565%
BRANCH_OTHER: 0 0%

DRAM PAGES: 1048576
Allocated PAGES: 5727
