
*** ChampSim Multicore Out-of-Order Simulator ***

Warmup Instructions: 50000000
Simulation Instructions: 200000000
Number of CPUs: 1
LLC sets: 2048
LLC ways: 16
Off-chip DRAM Size: 4096 MB Channels: 1 Width: 64-bit Data Rate: 6400 MT/s
CPU 0 runs traces/spec2k17/srv_55.champsimtrace.xz
.xz
BTB has LRU replacement policy
ITLB has LRU replacement policy
DTLB has LRU replacement policy
STLB has LRU replacement policy
L1I has LRU replacement policy
L1D has LRU replacement policy
Bingo PHT WAYS: 16 and PHT_SIZE: 16384
Initialize SRRIP state for L2C
Initialize DRRIP state for LLC
Heartbeat CPU 0 instructions: 10000000 cycles: 2860996 heartbeat IPC: 3.49529 cumulative IPC: 3.49529 (Simulation time: 0 hr 0 min 32 sec) 
Heartbeat CPU 0 instructions: 20000002 cycles: 5727803 heartbeat IPC: 3.4882 cumulative IPC: 3.49174 (Simulation time: 0 hr 1 min 7 sec) 
Heartbeat CPU 0 instructions: 30000001 cycles: 8574651 heartbeat IPC: 3.51266 cumulative IPC: 3.49868 (Simulation time: 0 hr 1 min 40 sec) 
*** Reached end of trace for Core: 0 Repeating trace: traces/spec2k17/srv_55.champsimtrace.xz
Heartbeat CPU 0 instructions: 40000000 cycles: 11439978 heartbeat IPC: 3.49 cumulative IPC: 3.49651 (Simulation time: 0 hr 2 min 16 sec) 
Heartbeat CPU 0 instructions: 50000002 cycles: 14296492 heartbeat IPC: 3.50077 cumulative IPC: 3.49736 (Simulation time: 0 hr 2 min 50 sec) 

Warmup complete CPU 0 instructions: 50000002 cycles: 14296492 (Simulation time: 0 hr 2 min 50 sec) 

Heartbeat CPU 0 instructions: 60000001 cycles: 36503499 heartbeat IPC: 0.450308 cumulative IPC: 0.450308 (Simulation time: 0 hr 3 min 44 sec) 
*** Reached end of trace for Core: 0 Repeating trace: traces/spec2k17/srv_55.champsimtrace.xz
Heartbeat CPU 0 instructions: 70000000 cycles: 57132757 heartbeat IPC: 0.484748 cumulative IPC: 0.466894 (Simulation time: 0 hr 4 min 33 sec) 
Heartbeat CPU 0 instructions: 80000003 cycles: 80760813 heartbeat IPC: 0.423226 cumulative IPC: 0.45137 (Simulation time: 0 hr 5 min 26 sec) 
Heartbeat CPU 0 instructions: 90000000 cycles: 101566138 heartbeat IPC: 0.480646 cumulative IPC: 0.458349 (Simulation time: 0 hr 6 min 15 sec) 
*** Reached end of trace for Core: 0 Repeating trace: traces/spec2k17/srv_55.champsimtrace.xz
Heartbeat CPU 0 instructions: 100000003 cycles: 123880729 heartbeat IPC: 0.448137 cumulative IPC: 0.45627 (Simulation time: 0 hr 7 min 3 sec) 
Heartbeat CPU 0 instructions: 110000000 cycles: 146708423 heartbeat IPC: 0.438064 cumulative IPC: 0.453131 (Simulation time: 0 hr 7 min 55 sec) 
Heartbeat CPU 0 instructions: 120000003 cycles: 168378978 heartbeat IPC: 0.461456 cumulative IPC: 0.454302 (Simulation time: 0 hr 8 min 48 sec) 
*** Reached end of trace for Core: 0 Repeating trace: traces/spec2k17/srv_55.champsimtrace.xz
Heartbeat CPU 0 instructions: 130000000 cycles: 188917046 heartbeat IPC: 0.486901 cumulative IPC: 0.458136 (Simulation time: 0 hr 9 min 37 sec) 
Heartbeat CPU 0 instructions: 140000002 cycles: 212058320 heartbeat IPC: 0.432128 cumulative IPC: 0.455093 (Simulation time: 0 hr 10 min 24 sec) 
Heartbeat CPU 0 instructions: 150000003 cycles: 233449743 heartbeat IPC: 0.467477 cumulative IPC: 0.456302 (Simulation time: 0 hr 11 min 11 sec) 
*** Reached end of trace for Core: 0 Repeating trace: traces/spec2k17/srv_55.champsimtrace.xz
Heartbeat CPU 0 instructions: 160000001 cycles: 255537975 heartbeat IPC: 0.45273 cumulative IPC: 0.455975 (Simulation time: 0 hr 11 min 56 sec) 
Heartbeat CPU 0 instructions: 170000000 cycles: 278864091 heartbeat IPC: 0.428704 cumulative IPC: 0.45357 (Simulation time: 0 hr 12 min 46 sec) 
Heartbeat CPU 0 instructions: 180000000 cycles: 298773903 heartbeat IPC: 0.502265 cumulative IPC: 0.456978 (Simulation time: 0 hr 13 min 35 sec) 
*** Reached end of trace for Core: 0 Repeating trace: traces/spec2k17/srv_55.champsimtrace.xz
Heartbeat CPU 0 instructions: 190000002 cycles: 320428631 heartbeat IPC: 0.461793 cumulative IPC: 0.457319 (Simulation time: 0 hr 14 min 23 sec) 
Heartbeat CPU 0 instructions: 200000000 cycles: 344865499 heartbeat IPC: 0.409218 cumulative IPC: 0.453763 (Simulation time: 0 hr 15 min 11 sec) 
Heartbeat CPU 0 instructions: 210000000 cycles: 365307683 heartbeat IPC: 0.489185 cumulative IPC: 0.455826 (Simulation time: 0 hr 16 min 1 sec) 
*** Reached end of trace for Core: 0 Repeating trace: traces/spec2k17/srv_55.champsimtrace.xz
Heartbeat CPU 0 instructions: 220000000 cycles: 386583627 heartbeat IPC: 0.470014 cumulative IPC: 0.456637 (Simulation time: 0 hr 16 min 50 sec) 
Heartbeat CPU 0 instructions: 230000001 cycles: 409798415 heartbeat IPC: 0.43076 cumulative IPC: 0.455118 (Simulation time: 0 hr 17 min 40 sec) 
Heartbeat CPU 0 instructions: 240000003 cycles: 431391917 heartbeat IPC: 0.463102 cumulative IPC: 0.455531 (Simulation time: 0 hr 18 min 26 sec) 
*** Reached end of trace for Core: 0 Repeating trace: traces/spec2k17/srv_55.champsimtrace.xz
Heartbeat CPU 0 instructions: 250000001 cycles: 453127027 heartbeat IPC: 0.460085 cumulative IPC: 0.455757 (Simulation time: 0 hr 19 min 7 sec) 
Finished CPU 0 instructions: 200000000 cycles: 438830552 cumulative IPC: 0.455757 (Simulation time: 0 hr 19 min 7 sec) 

ChampSim completed all CPUs

Region of Interest Statistics

CPU 0 cumulative IPC: 0.455757 instructions: 200000000 cycles: 438830552
ITLB TOTAL     ACCESS:   34472842  HIT:   33629440  MISS:     843402  HIT %:    97.5534  MISS %:    2.44657   MPKI: 4.21701
ITLB LOAD TRANSLATION ACCESS:   34472842  HIT:   33629440  MISS:     843402  HIT %:    97.5534  MISS %:    2.44657   MPKI: 4.21701
ITLB PREFETCH  REQUESTED:          0  ISSUED:          0  USEFUL:          0  USELESS:          0
ITLB USEFUL LOAD PREFETCHES:          0 PREFETCH ISSUED TO LOWER LEVEL:          0  ACCURACY: -nan
ITLB TIMELY PREFETCHES:          0 LATE PREFETCHES: 0 DROPPED PREFETCHES: 0
ITLB PREFETCHES SAME FILL-ORIGIN LEVEL: 0 DIFFERENT FILL-ORIGIN LEVEL: 0
ITLB AVERAGE MISS LATENCY: 10.7205 cycles
ITLB RQ	ACCESS:   39356279	FORWARD:          0	MERGED:    4642085	TO_CACHE:   34714194

DTLB TOTAL     ACCESS:   39313715  HIT:   38417289  MISS:     896426  HIT %:    97.7198  MISS %:    2.28019   MPKI: 4.48213
DTLB LOAD TRANSLATION ACCESS:   39313715  HIT:   38417289  MISS:     896426  HIT %:    97.7198  MISS %:    2.28019   MPKI: 4.48213
DTLB PREFETCH  REQUESTED:          0  ISSUED:          0  USEFUL:          0  USELESS:          0
DTLB USEFUL LOAD PREFETCHES:          0 PREFETCH ISSUED TO LOWER LEVEL:          0  ACCURACY: -nan
DTLB TIMELY PREFETCHES:          0 LATE PREFETCHES: 0 DROPPED PREFETCHES: 0
DTLB PREFETCHES SAME FILL-ORIGIN LEVEL: 0 DIFFERENT FILL-ORIGIN LEVEL: 0
DTLB AVERAGE MISS LATENCY: 16.9291 cycles
DTLB RQ	ACCESS:   51596319	FORWARD:          0	MERGED:   12213502	TO_CACHE:   39382817

STLB TOTAL     ACCESS:    1739828  HIT:    1626439  MISS:     113389  HIT %:    93.4827  MISS %:    6.51725   MPKI: 0.566945
STLB LOAD TRANSLATION ACCESS:    1739828  HIT:    1626439  MISS:     113389  HIT %:    93.4827  MISS %:    6.51725   MPKI: 0.566945
STLB PREFETCH  REQUESTED:          0  ISSUED:          0  USEFUL:          0  USELESS:          0
STLB USEFUL LOAD PREFETCHES:          0 PREFETCH ISSUED TO LOWER LEVEL:          0  ACCURACY: -nan
STLB TIMELY PREFETCHES:          0 LATE PREFETCHES: 0 DROPPED PREFETCHES: 0
STLB PREFETCHES SAME FILL-ORIGIN LEVEL: 0 DIFFERENT FILL-ORIGIN LEVEL: 0
STLB AVERAGE MISS LATENCY: 75.3794 cycles
STLB RQ	ACCESS:    1739828	FORWARD:          0	MERGED:          0	TO_CACHE:    1739828

STLB Hit, L1D data hit: 0
STLB Hit, L2C data hit: 0
STLB Hit, LLC data hit: 0
STLB Hit, LLC data miss: 0
STLB STLB hints to L2: 0
L1D TOTAL     ACCESS:   50458489  HIT:   48189399  MISS:    2269090  HIT %:    95.5031  MISS %:    4.49694   MPKI: 11.3454
L1D LOAD      ACCESS:   31744433  HIT:   30195333  MISS:    1549100  HIT %:    95.1201  MISS %:    4.87991   MPKI: 7.7455
L1D RFO       ACCESS:   18714056  HIT:   17994066  MISS:     719990  HIT %:    96.1527  MISS %:    3.84732   MPKI: 3.59995
L1D PREFETCH  REQUESTED:          0  ISSUED:          0  USEFUL:          0  USELESS:          0
L1D USEFUL LOAD PREFETCHES:          0 PREFETCH ISSUED TO LOWER LEVEL:          0  ACCURACY: -nan
L1D TIMELY PREFETCHES:          0 LATE PREFETCHES: 0 DROPPED PREFETCHES: 0
L1D PREFETCHES SAME FILL-ORIGIN LEVEL: 0 DIFFERENT FILL-ORIGIN LEVEL: 0
L1D AVERAGE MISS LATENCY: 44.3522 cycles
L1D RQ	ACCESS:   43776899	FORWARD:          0	MERGED:   11653536	TO_CACHE:   31837415
L1D WQ	ACCESS:   20006828	FORWARD:     285948	MERGED:     247924	TO_CACHE:   19758904

L1D UNIQUE REGIONS ACCESSED: 0
L1D REGIONS CONFLICTS: 0
L1D Cross Page Prefetch Requests: 0
L1D Same Page Prefetch Requests: 0
L1D ROI Sum of L1D PQ occupancy: 0
L1D PREFETCHES PUSHED FROM L2C: 0
L1I TOTAL     ACCESS:   38614789  HIT:   34059517  MISS:    4555272  HIT %:    88.2033  MISS %:    11.7967   MPKI: 22.7764
L1I LOAD      ACCESS:   38614789  HIT:   34059517  MISS:    4555272  HIT %:    88.2033  MISS %:    11.7967   MPKI: 22.7764
L1I PREFETCH  REQUESTED:          0  ISSUED:          0  USEFUL:          0  USELESS:          0
L1I USEFUL LOAD PREFETCHES:          0 PREFETCH ISSUED TO LOWER LEVEL:          0  ACCURACY: -nan
L1I TIMELY PREFETCHES:          0 LATE PREFETCHES: 0 DROPPED PREFETCHES: 0
L1I PREFETCHES SAME FILL-ORIGIN LEVEL: 0 DIFFERENT FILL-ORIGIN LEVEL: 0
L1I AVERAGE MISS LATENCY: 23.6214 cycles
L1I RQ	ACCESS:   59989573	FORWARD:          0	MERGED:   20633294	TO_CACHE:   39356279

BTB TOTAL     ACCESS:   31459046  HIT:   25911135  MISS:    5547911  HIT %:    82.3647  MISS %:    17.6353   MPKI: 27.7396
BTB BRANCH_DIRECT_JUMP	ACCESS:    3339084  HIT:    2970489  MISS:     368595
BTB BRANCH_INDIRECT	ACCESS:   11794432  HIT:    9601231  MISS:    2193201
BTB BRANCH_CONDITIONAL	ACCESS:   10201130  HIT:    9749255  MISS:     451875
BTB BRANCH_DIRECT_CALL	ACCESS:    2608135  HIT:    1905671  MISS:     702464
BTB BRANCH_INDIRECT_CALL	ACCESS:     454121  HIT:     253463  MISS:     200658
BTB BRANCH_RETURN	ACCESS:    3062144  HIT:    1431026  MISS:    1631118
BTB BRANCH_OTHER ACCESS:          0  HIT:          0  MISS:          0

L2C TOTAL     ACCESS:    9367464  HIT:    6507150  MISS:    2860314  HIT %:    69.4654  MISS %:    30.5346   MPKI: 14.3016
L2C LOAD      ACCESS:    6104349  HIT:    4374958  MISS:    1729391  HIT %:    71.6695  MISS %:    28.3305   MPKI: 8.64696
L2C DATA LOAD MPKI: 1.65311
L2C INSTRUCTION LOAD MPKI: 6.99384
L2C RFO       ACCESS:     719989  HIT:     294021  MISS:     425968  HIT %:    40.8369  MISS %:    59.1631   MPKI: 2.12984
L2C PREFETCH  ACCESS:    1159513  HIT:     631210  MISS:     528303  HIT %:    54.4375  MISS %:    45.5625   MPKI: 2.64152
AGUS PREFETCH L1 MISS: 0
L2C DATA PREFETCH MPKI: 2.64152
L2C INSTRUCTION PREFETCH MPKI: 0
L2C WRITEBACK ACCESS:    1211080  HIT:    1133978  MISS:      77102  HIT %:    93.6336  MISS %:    6.36638   MPKI: 0.38551
L2C LOAD TRANSLATION ACCESS:     172533  HIT:      72983  MISS:      99550  HIT %:    42.3009  MISS %:    57.6991   MPKI: 0.49775
L2C PREFETCH  REQUESTED:    1197709  ISSUED:    1197709  USEFUL:     353514  USELESS:     174674
L2C USEFUL LOAD PREFETCHES:     353514 PREFETCH ISSUED TO LOWER LEVEL:     540829  ACCURACY: 65.3652
L2C TIMELY PREFETCHES:     353514 LATE PREFETCHES: 12526 DROPPED PREFETCHES: 0
L2C PREFETCHES SAME FILL-ORIGIN LEVEL: 540829 DIFFERENT FILL-ORIGIN LEVEL: 0
L2C AVERAGE MISS LATENCY: 56.7713 cycles
L2C RQ	ACCESS:    6996894	FORWARD:          0	MERGED:          0	TO_CACHE:    6996870
L2C WQ	ACCESS:    1211080	FORWARD:         32	MERGED:          0	TO_CACHE:    1211080
L2C PQ	ACCESS:    1197709	FORWARD:          0	MERGED:          0	TO_CACHE:    1197701

L2C Instructions Evicting Data 642126
L2C Translations Evicting Data 48450
L2C Data Evicting Data 631869
L2C Instructions Evicting Instructions 709681
L2C Translations Evicting Instructions 47490
L2C Data Evicting Instructions 606081
L2C Instructions Evicting Translations 46961
L2C Translations Evicting Translations 3610
L2C Data Evicting Translations 46944
L2C Dense regions hint from L2: 0
PSCL5 TOTAL     ACCESS:     113389  HIT:     113389  MISS:          0  HIT %:        100  MISS %:          0   MPKI: 0
PSCL5 LOAD TRANSLATION ACCESS:     113389  HIT:     113389  MISS:          0  HIT %:        100  MISS %:          0   MPKI: 0
PSCL5 PREFETCH  REQUESTED:          0  ISSUED:          0  USEFUL:          0  USELESS:          0
PSCL5 USEFUL LOAD PREFETCHES:          0 PREFETCH ISSUED TO LOWER LEVEL:          0  ACCURACY: -nan
PSCL5 TIMELY PREFETCHES:          0 LATE PREFETCHES: 0 DROPPED PREFETCHES: 0
PSCL5 PREFETCHES SAME FILL-ORIGIN LEVEL: 0 DIFFERENT FILL-ORIGIN LEVEL: 0

PSCL4 TOTAL     ACCESS:     112052  HIT:     111502  MISS:        550  HIT %:    99.5092  MISS %:   0.490844   MPKI: 0.00275
PSCL4 LOAD TRANSLATION ACCESS:     112052  HIT:     111502  MISS:        550  HIT %:    99.5092  MISS %:   0.490844   MPKI: 0.00275
PSCL4 PREFETCH  REQUESTED:          0  ISSUED:          0  USEFUL:          0  USELESS:          0
PSCL4 USEFUL LOAD PREFETCHES:          0 PREFETCH ISSUED TO LOWER LEVEL:          0  ACCURACY: -nan
PSCL4 TIMELY PREFETCHES:          0 LATE PREFETCHES: 0 DROPPED PREFETCHES: 0
PSCL4 PREFETCHES SAME FILL-ORIGIN LEVEL: 0 DIFFERENT FILL-ORIGIN LEVEL: 0

PSCL3 TOTAL     ACCESS:     104889  HIT:      89551  MISS:      15338  HIT %:    85.3769  MISS %:    14.6231   MPKI: 0.07669
PSCL3 LOAD TRANSLATION ACCESS:     104889  HIT:      89551  MISS:      15338  HIT %:    85.3769  MISS %:    14.6231   MPKI: 0.07669
PSCL3 PREFETCH  REQUESTED:          0  ISSUED:          0  USEFUL:          0  USELESS:          0
PSCL3 USEFUL LOAD PREFETCHES:          0 PREFETCH ISSUED TO LOWER LEVEL:          0  ACCURACY: -nan
PSCL3 TIMELY PREFETCHES:          0 LATE PREFETCHES: 0 DROPPED PREFETCHES: 0
PSCL3 PREFETCHES SAME FILL-ORIGIN LEVEL: 0 DIFFERENT FILL-ORIGIN LEVEL: 0

PSCL2 TOTAL     ACCESS:     113389  HIT:      70133  MISS:      43256  HIT %:    61.8517  MISS %:    38.1483   MPKI: 0.21628
PSCL2 LOAD TRANSLATION ACCESS:     113389  HIT:      70133  MISS:      43256  HIT %:    61.8517  MISS %:    38.1483   MPKI: 0.21628
PSCL2 PREFETCH  REQUESTED:          0  ISSUED:          0  USEFUL:          0  USELESS:          0
PSCL2 USEFUL LOAD PREFETCHES:          0 PREFETCH ISSUED TO LOWER LEVEL:          0  ACCURACY: -nan
PSCL2 TIMELY PREFETCHES:          0 LATE PREFETCHES: 0 DROPPED PREFETCHES: 0
PSCL2 PREFETCHES SAME FILL-ORIGIN LEVEL: 0 DIFFERENT FILL-ORIGIN LEVEL: 0

LLC TOTAL     ACCESS:    3458237  HIT:    3038391  MISS:     419846  HIT %:    87.8595  MISS %:    12.1405   MPKI: 2.09923
LLC LOAD      ACCESS:    1716953  HIT:    1632767  MISS:      84186  HIT %:    95.0968  MISS %:    4.90322   MPKI: 0.42093
LLC RFO       ACCESS:     425879  HIT:     278629  MISS:     147250  HIT %:    65.4245  MISS %:    34.5755   MPKI: 0.73625
LLC PREFETCH  ACCESS:     540828  HIT:     368504  MISS:     172324  HIT %:     68.137  MISS %:     31.863   MPKI: 0.86162
AGUS PREFETCH L1 MISS: 0
LLC WRITEBACK ACCESS:     675027  HIT:     672721  MISS:       2306  HIT %:    99.6584  MISS %:   0.341616   MPKI: 0.01153
LLC LOAD TRANSLATION ACCESS:      99550  HIT:      85770  MISS:      13780  HIT %:    86.1577  MISS %:    13.8423   MPKI: 0.0689
LLC PREFETCH  REQUESTED:          0  ISSUED:          0  USEFUL:       8599  USELESS:     162541
LLC USEFUL LOAD PREFETCHES:       8599 PREFETCH ISSUED TO LOWER LEVEL:     172324  ACCURACY: 4.99002
LLC TIMELY PREFETCHES:       8599 LATE PREFETCHES: 0 DROPPED PREFETCHES: 0
LLC PREFETCHES SAME FILL-ORIGIN LEVEL: 0 DIFFERENT FILL-ORIGIN LEVEL: 0
LLC AVERAGE MISS LATENCY: 190.529 cycles
LLC RQ	ACCESS:    2242383	FORWARD:          0	MERGED:          0	TO_CACHE:    2242382
LLC WQ	ACCESS:     675027	FORWARD:          2	MERGED:          0	TO_CACHE:     675027
LLC PQ	ACCESS:     540829	FORWARD:          0	MERGED:          0	TO_CACHE:     540828

LLC Dense regions hint to LLC: 0

RAW hits: 1839563
Loads Generated: 45616462
Loads sent to L1D: 43776899
Stores Generated: 20006818
Stores sent to L1D: 20006828
Major fault: 0 Minor fault: 5873
Allocated PAGES: 5873
[Bingo] PHT Access: 450102
[Bingo] PHT Hit PC+Addr: 286349
[Bingo] PHT Hit PC+Offs: 36216
[Bingo] PHT Miss: 127537
[Bingo] Prefetch PC+Addr: 0
[Bingo] Prefetch PC+Offs: 0
[Bingo] Useful PC+Addr: 0
[Bingo] Useful PC+Offs: 0
[Bingo] Useless PC+Addr: 0
[Bingo] Useless PC+Offs: 0
[Bingo] L1 Prefetch per Region: 0
[Bingo] L2 Prefetch per Region: 4.76501
[Bingo] L3 Prefetch per Region: 0
[Bingo] No Prefetch per Region: 27.235
[Bingo] Number of Voters Mean: 5.61572
[Bingo] Number of Voters SD: 6.2511
PHT read accesses: 2824603
PHT write accesses: 237463
AT read accesses: 1194259
AT write accesses: 1327509
FT read accesses: 768251
FT write accesses: 450102
PS read accesses: 652982
PS write accesses: 322565
PHT tag read accesses: 7582298
PHT tag write accesses: 523812
AT tag read accesses: 81158502
AT tag write accesses: 1431718
FT tag read accesses: 73000880
FT tag write accesses: 971969
PS tag read accesses: 37145123
PS tag write accesses: 973607

DRAM Statistics
 CHANNEL 0
 RQ ROW_BUFFER_HIT:     134223  ROW_BUFFER_MISS:     283314
 DBUS_CONGESTED:        158
 WQ ROW_BUFFER_HIT:      24249  ROW_BUFFER_MISS:     216979  FULL:          0

 AVG_CONGESTED_CYCLE: 5
 All warmup complete: 2
Channel 0 Bank busy for read cycles: 0
Channel 0 Bank busy for write cycles: 0
Channel 0
Rank 0
0banks busy for read cycles: 396681615
0banks busy for write cycles: 77889
1banks busy for read cycles: 15210219
1banks busy for write cycles: 9450430
2banks busy for read cycles: 3826504
2banks busy for write cycles: 3023803
3banks busy for read cycles: 1731635
3banks busy for write cycles: 1585082
4banks busy for read cycles: 1039501
4banks busy for write cycles: 975938
5banks busy for read cycles: 638648
5banks busy for write cycles: 650390
6banks busy for read cycles: 516609
6banks busy for write cycles: 500567
7banks busy for read cycles: 491999
7banks busy for write cycles: 452097
8banks busy for read cycles: 933561
8banks busy for write cycles: 1044066

CPU 0 Branch Prediction Accuracy: 99.6074% MPKI: 0.711955 Average ROB Occupancy at Mispredict: 27.1126
Branch types
NOT_BRANCH: 163727776 81.8639%
BRANCH_DIRECT_JUMP: 3339084 1.66954%
BRANCH_INDIRECT: 11794432 5.89722%
BRANCH_CONDITIONAL: 15014282 7.50714%
BRANCH_DIRECT_CALL: 2608135 1.30407%
BRANCH_INDIRECT_CALL: 454121 0.22706%
BRANCH_RETURN: 3062144 1.53107%
BRANCH_OTHER: 0 0%

DRAM PAGES: 1048576
Allocated PAGES: 5873
