
*** ChampSim Multicore Out-of-Order Simulator ***

Warmup Instructions: 50000000
Simulation Instructions: 200000000
Number of CPUs: 1
LLC sets: 2048
LLC ways: 16
Off-chip DRAM Size: 4096 MB Channels: 1 Width: 64-bit Data Rate: 6400 MT/s
CPU 0 runs traces/spec2k17/srv_0.champsimtrace.xz
.xz
BTB has LRU replacement policy
ITLB has LRU replacement policy
DTLB has LRU replacement policy
STLB has LRU replacement policy
L1I has LRU replacement policy
L1D has LRU replacement policy
Bingo PHT WAYS: 16 and PHT_SIZE: 16384
Initialize SRRIP state for L2C
Initialize DRRIP state for LLC
Heartbeat CPU 0 instructions: 10000003 cycles: 2782520 heartbeat IPC: 3.59387 cumulative IPC: 3.59387 (Simulation time: 0 hr 0 min 28 sec) 
Heartbeat CPU 0 instructions: 20000000 cycles: 5556579 heartbeat IPC: 3.60483 cumulative IPC: 3.59934 (Simulation time: 0 hr 1 min 0 sec) 
Heartbeat CPU 0 instructions: 30000001 cycles: 8331451 heartbeat IPC: 3.60377 cumulative IPC: 3.60081 (Simulation time: 0 hr 1 min 33 sec) 
*** Reached end of trace for Core: 0 Repeating trace: traces/spec2k17/srv_0.champsimtrace.xz
Heartbeat CPU 0 instructions: 40000002 cycles: 11108472 heartbeat IPC: 3.60098 cumulative IPC: 3.60086 (Simulation time: 0 hr 2 min 6 sec) 
Heartbeat CPU 0 instructions: 50000000 cycles: 13882685 heartbeat IPC: 3.60463 cumulative IPC: 3.60161 (Simulation time: 0 hr 2 min 41 sec) 

Warmup complete CPU 0 instructions: 50000004 cycles: 13882686 (Simulation time: 0 hr 2 min 41 sec) 

Heartbeat CPU 0 instructions: 60000000 cycles: 37093674 heartbeat IPC: 0.43083 cumulative IPC: 0.43083 (Simulation time: 0 hr 3 min 34 sec) 
*** Reached end of trace for Core: 0 Repeating trace: traces/spec2k17/srv_0.champsimtrace.xz
Heartbeat CPU 0 instructions: 70000001 cycles: 60620001 heartbeat IPC: 0.425056 cumulative IPC: 0.427924 (Simulation time: 0 hr 4 min 31 sec) 
Heartbeat CPU 0 instructions: 80000001 cycles: 83833849 heartbeat IPC: 0.430777 cumulative IPC: 0.428871 (Simulation time: 0 hr 5 min 27 sec) 
Heartbeat CPU 0 instructions: 90000000 cycles: 106829241 heartbeat IPC: 0.43487 cumulative IPC: 0.430355 (Simulation time: 0 hr 6 min 18 sec) 
*** Reached end of trace for Core: 0 Repeating trace: traces/spec2k17/srv_0.champsimtrace.xz
Heartbeat CPU 0 instructions: 100000000 cycles: 130339562 heartbeat IPC: 0.425345 cumulative IPC: 0.429343 (Simulation time: 0 hr 7 min 9 sec) 
Heartbeat CPU 0 instructions: 110000000 cycles: 153647828 heartbeat IPC: 0.429032 cumulative IPC: 0.429292 (Simulation time: 0 hr 8 min 2 sec) 
Heartbeat CPU 0 instructions: 120000002 cycles: 176821333 heartbeat IPC: 0.431527 cumulative IPC: 0.42961 (Simulation time: 0 hr 8 min 56 sec) 
*** Reached end of trace for Core: 0 Repeating trace: traces/spec2k17/srv_0.champsimtrace.xz
Heartbeat CPU 0 instructions: 130000000 cycles: 200235117 heartbeat IPC: 0.427099 cumulative IPC: 0.429294 (Simulation time: 0 hr 9 min 53 sec) 
Heartbeat CPU 0 instructions: 140000001 cycles: 223441428 heartbeat IPC: 0.430917 cumulative IPC: 0.429474 (Simulation time: 0 hr 10 min 44 sec) 
Heartbeat CPU 0 instructions: 150000000 cycles: 246547662 heartbeat IPC: 0.432784 cumulative IPC: 0.429803 (Simulation time: 0 hr 11 min 34 sec) 
*** Reached end of trace for Core: 0 Repeating trace: traces/spec2k17/srv_0.champsimtrace.xz
Heartbeat CPU 0 instructions: 160000002 cycles: 269637915 heartbeat IPC: 0.433083 cumulative IPC: 0.430099 (Simulation time: 0 hr 12 min 23 sec) 
Heartbeat CPU 0 instructions: 170000001 cycles: 293004496 heartbeat IPC: 0.427962 cumulative IPC: 0.42992 (Simulation time: 0 hr 13 min 13 sec) 
Heartbeat CPU 0 instructions: 180000001 cycles: 316129560 heartbeat IPC: 0.432431 cumulative IPC: 0.430112 (Simulation time: 0 hr 14 min 1 sec) 
*** Reached end of trace for Core: 0 Repeating trace: traces/spec2k17/srv_0.champsimtrace.xz
Heartbeat CPU 0 instructions: 190000000 cycles: 339131380 heartbeat IPC: 0.434748 cumulative IPC: 0.43044 (Simulation time: 0 hr 14 min 51 sec) 
Heartbeat CPU 0 instructions: 200000001 cycles: 362694604 heartbeat IPC: 0.42439 cumulative IPC: 0.430031 (Simulation time: 0 hr 15 min 43 sec) 
Heartbeat CPU 0 instructions: 210000000 cycles: 385695893 heartbeat IPC: 0.434758 cumulative IPC: 0.430324 (Simulation time: 0 hr 16 min 34 sec) 
*** Reached end of trace for Core: 0 Repeating trace: traces/spec2k17/srv_0.champsimtrace.xz
Heartbeat CPU 0 instructions: 220000000 cycles: 408819948 heartbeat IPC: 0.43245 cumulative IPC: 0.430448 (Simulation time: 0 hr 17 min 25 sec) 
Heartbeat CPU 0 instructions: 230000003 cycles: 432410777 heartbeat IPC: 0.423894 cumulative IPC: 0.430079 (Simulation time: 0 hr 18 min 16 sec) 
Heartbeat CPU 0 instructions: 240000003 cycles: 455077793 heartbeat IPC: 0.44117 cumulative IPC: 0.430648 (Simulation time: 0 hr 19 min 8 sec) 
*** Reached end of trace for Core: 0 Repeating trace: traces/spec2k17/srv_0.champsimtrace.xz
Heartbeat CPU 0 instructions: 250000003 cycles: 478236192 heartbeat IPC: 0.431809 cumulative IPC: 0.430706 (Simulation time: 0 hr 19 min 59 sec) 
Finished CPU 0 instructions: 200000003 cycles: 464353507 cumulative IPC: 0.430706 (Simulation time: 0 hr 19 min 59 sec) 

ChampSim completed all CPUs

Region of Interest Statistics

CPU 0 cumulative IPC: 0.430706 instructions: 200000003 cycles: 464353507
ITLB TOTAL     ACCESS:   31488408  HIT:   30684568  MISS:     803840  HIT %:    97.4472  MISS %:    2.55281   MPKI: 4.0192
ITLB LOAD TRANSLATION ACCESS:   31488408  HIT:   30684568  MISS:     803840  HIT %:    97.4472  MISS %:    2.55281   MPKI: 4.0192
ITLB PREFETCH  REQUESTED:          0  ISSUED:          0  USEFUL:          0  USELESS:          0
ITLB USEFUL LOAD PREFETCHES:          0 PREFETCH ISSUED TO LOWER LEVEL:          0  ACCURACY: -nan
ITLB TIMELY PREFETCHES:          0 LATE PREFETCHES: 0 DROPPED PREFETCHES: 0
ITLB PREFETCHES SAME FILL-ORIGIN LEVEL: 0 DIFFERENT FILL-ORIGIN LEVEL: 0
ITLB AVERAGE MISS LATENCY: 15.8539 cycles
ITLB RQ	ACCESS:   38368575	FORWARD:          0	MERGED:    6685800	TO_CACHE:   31682775

DTLB TOTAL     ACCESS:   37759642  HIT:   35209863  MISS:    2549779  HIT %:    93.2473  MISS %:    6.75266   MPKI: 12.7489
DTLB LOAD TRANSLATION ACCESS:   37759642  HIT:   35209863  MISS:    2549779  HIT %:    93.2473  MISS %:    6.75266   MPKI: 12.7489
DTLB PREFETCH  REQUESTED:          0  ISSUED:          0  USEFUL:          0  USELESS:          0
DTLB USEFUL LOAD PREFETCHES:          0 PREFETCH ISSUED TO LOWER LEVEL:          0  ACCURACY: -nan
DTLB TIMELY PREFETCHES:          0 LATE PREFETCHES: 0 DROPPED PREFETCHES: 0
DTLB PREFETCHES SAME FILL-ORIGIN LEVEL: 0 DIFFERENT FILL-ORIGIN LEVEL: 0
DTLB AVERAGE MISS LATENCY: 14.1565 cycles
DTLB RQ	ACCESS:   48052708	FORWARD:          0	MERGED:   10139531	TO_CACHE:   37913177

STLB TOTAL     ACCESS:    3353619  HIT:    2898105  MISS:     455514  HIT %:    86.4172  MISS %:    13.5828   MPKI: 2.27757
STLB LOAD TRANSLATION ACCESS:    3353619  HIT:    2898105  MISS:     455514  HIT %:    86.4172  MISS %:    13.5828   MPKI: 2.27757
STLB PREFETCH  REQUESTED:          0  ISSUED:          0  USEFUL:          0  USELESS:          0
STLB USEFUL LOAD PREFETCHES:          0 PREFETCH ISSUED TO LOWER LEVEL:          0  ACCURACY: -nan
STLB TIMELY PREFETCHES:          0 LATE PREFETCHES: 0 DROPPED PREFETCHES: 0
STLB PREFETCHES SAME FILL-ORIGIN LEVEL: 0 DIFFERENT FILL-ORIGIN LEVEL: 0
STLB AVERAGE MISS LATENCY: 40.7796 cycles
STLB RQ	ACCESS:    3353619	FORWARD:          0	MERGED:          0	TO_CACHE:    3353619

STLB Hit, L1D data hit: 0
STLB Hit, L2C data hit: 0
STLB Hit, LLC data hit: 0
STLB Hit, LLC data miss: 0
STLB STLB hints to L2: 0
L1D TOTAL     ACCESS:   47558695  HIT:   45057974  MISS:    2500721  HIT %:    94.7418  MISS %:    5.25818   MPKI: 12.5036
L1D LOAD      ACCESS:   28106661  HIT:   25956513  MISS:    2150148  HIT %:      92.35  MISS %:    7.64996   MPKI: 10.7507
L1D RFO       ACCESS:   19452034  HIT:   19101461  MISS:     350573  HIT %:    98.1978  MISS %:    1.80224   MPKI: 1.75286
L1D PREFETCH  REQUESTED:          0  ISSUED:          0  USEFUL:          0  USELESS:          0
L1D USEFUL LOAD PREFETCHES:          0 PREFETCH ISSUED TO LOWER LEVEL:          0  ACCURACY: -nan
L1D TIMELY PREFETCHES:          0 LATE PREFETCHES: 0 DROPPED PREFETCHES: 0
L1D PREFETCHES SAME FILL-ORIGIN LEVEL: 0 DIFFERENT FILL-ORIGIN LEVEL: 0
L1D AVERAGE MISS LATENCY: 28.4907 cycles
L1D RQ	ACCESS:   42274691	FORWARD:          0	MERGED:   13885352	TO_CACHE:   28186755
L1D WQ	ACCESS:   20137758	FORWARD:     202584	MERGED:     271805	TO_CACHE:   19865953

L1D UNIQUE REGIONS ACCESSED: 0
L1D REGIONS CONFLICTS: 0
L1D Cross Page Prefetch Requests: 0
L1D Same Page Prefetch Requests: 0
L1D ROI Sum of L1D PQ occupancy: 0
L1D PREFETCHES PUSHED FROM L2C: 0
L1I TOTAL     ACCESS:   36679817  HIT:   31515041  MISS:    5164776  HIT %:    85.9193  MISS %:    14.0807   MPKI: 25.8239
L1I LOAD      ACCESS:   36679817  HIT:   31515041  MISS:    5164776  HIT %:    85.9193  MISS %:    14.0807   MPKI: 25.8239
L1I PREFETCH  REQUESTED:          0  ISSUED:          0  USEFUL:          0  USELESS:          0
L1I USEFUL LOAD PREFETCHES:          0 PREFETCH ISSUED TO LOWER LEVEL:          0  ACCURACY: -nan
L1I TIMELY PREFETCHES:          0 LATE PREFETCHES: 0 DROPPED PREFETCHES: 0
L1I PREFETCHES SAME FILL-ORIGIN LEVEL: 0 DIFFERENT FILL-ORIGIN LEVEL: 0
L1I AVERAGE MISS LATENCY: 28.5212 cycles
L1I RQ	ACCESS:   57140342	FORWARD:          0	MERGED:   18771767	TO_CACHE:   38368575

BTB TOTAL     ACCESS:   22550836  HIT:   17495671  MISS:    5055165  HIT %:    77.5832  MISS %:    22.4168   MPKI: 25.2758
BTB BRANCH_DIRECT_JUMP	ACCESS:    1746702  HIT:    1443261  MISS:     303441
BTB BRANCH_INDIRECT	ACCESS:    9682796  HIT:    7307546  MISS:    2375250
BTB BRANCH_CONDITIONAL	ACCESS:    4538075  HIT:    4055500  MISS:     482575
BTB BRANCH_DIRECT_CALL	ACCESS:    2563120  HIT:    1968742  MISS:     594378
BTB BRANCH_INDIRECT_CALL	ACCESS:     725676  HIT:     668377  MISS:      57299
BTB BRANCH_RETURN	ACCESS:    3294467  HIT:    2052245  MISS:    1242222
BTB BRANCH_OTHER ACCESS:          0  HIT:          0  MISS:          0

L2C TOTAL     ACCESS:   10579694  HIT:    6526927  MISS:    4052767  HIT %:     61.693  MISS %:     38.307   MPKI: 20.2638
L2C LOAD      ACCESS:    7314887  HIT:    4336992  MISS:    2977895  HIT %:    59.2899  MISS %:    40.7101   MPKI: 14.8895
L2C DATA LOAD MPKI: 2.74656
L2C INSTRUCTION LOAD MPKI: 12.1429
L2C RFO       ACCESS:     350573  HIT:     171134  MISS:     179439  HIT %:    48.8155  MISS %:    51.1845   MPKI: 0.897195
L2C PREFETCH  ACCESS:    1337115  HIT:     712262  MISS:     624853  HIT %:    53.2686  MISS %:    46.7314   MPKI: 3.12426
AGUS PREFETCH L1 MISS: 0
L2C DATA PREFETCH MPKI: 3.12426
L2C INSTRUCTION PREFETCH MPKI: 0
L2C WRITEBACK ACCESS:     999050  HIT:     958743  MISS:      40307  HIT %:    95.9655  MISS %:    4.03453   MPKI: 0.201535
L2C LOAD TRANSLATION ACCESS:     578069  HIT:     347796  MISS:     230273  HIT %:    60.1651  MISS %:    39.8349   MPKI: 1.15136
L2C PREFETCH  REQUESTED:    1394954  ISSUED:    1394954  USEFUL:     526615  USELESS:      98255
L2C USEFUL LOAD PREFETCHES:     526615 PREFETCH ISSUED TO LOWER LEVEL:     640662  ACCURACY: 82.1986
L2C TIMELY PREFETCHES:     526615 LATE PREFETCHES: 15809 DROPPED PREFETCHES: 0
L2C PREFETCHES SAME FILL-ORIGIN LEVEL: 640662 DIFFERENT FILL-ORIGIN LEVEL: 0
L2C AVERAGE MISS LATENCY: 40.5136 cycles
L2C RQ	ACCESS:    8243566	FORWARD:          0	MERGED:          0	TO_CACHE:    8243529
L2C WQ	ACCESS:     999050	FORWARD:         37	MERGED:          0	TO_CACHE:     999050
L2C PQ	ACCESS:    1394954	FORWARD:          0	MERGED:          0	TO_CACHE:    1394954

L2C Instructions Evicting Data 828307
L2C Translations Evicting Data 79483
L2C Data Evicting Data 469419
L2C Instructions Evicting Instructions 1462395
L2C Translations Evicting Instructions 137664
L2C Data Evicting Instructions 807056
L2C Instructions Evicting Translations 137881
L2C Translations Evicting Translations 13126
L2C Data Evicting Translations 77129
L2C Dense regions hint from L2: 0
PSCL5 TOTAL     ACCESS:     455514  HIT:     455514  MISS:          0  HIT %:        100  MISS %:          0   MPKI: 0
PSCL5 LOAD TRANSLATION ACCESS:     455514  HIT:     455514  MISS:          0  HIT %:        100  MISS %:          0   MPKI: 0
PSCL5 PREFETCH  REQUESTED:          0  ISSUED:          0  USEFUL:          0  USELESS:          0
PSCL5 USEFUL LOAD PREFETCHES:          0 PREFETCH ISSUED TO LOWER LEVEL:          0  ACCURACY: -nan
PSCL5 TIMELY PREFETCHES:          0 LATE PREFETCHES: 0 DROPPED PREFETCHES: 0
PSCL5 PREFETCHES SAME FILL-ORIGIN LEVEL: 0 DIFFERENT FILL-ORIGIN LEVEL: 0

PSCL4 TOTAL     ACCESS:     437637  HIT:     436696  MISS:        941  HIT %:     99.785  MISS %:   0.215018   MPKI: 0.004705
PSCL4 LOAD TRANSLATION ACCESS:     437637  HIT:     436696  MISS:        941  HIT %:     99.785  MISS %:   0.215018   MPKI: 0.004705
PSCL4 PREFETCH  REQUESTED:          0  ISSUED:          0  USEFUL:          0  USELESS:          0
PSCL4 USEFUL LOAD PREFETCHES:          0 PREFETCH ISSUED TO LOWER LEVEL:          0  ACCURACY: -nan
PSCL4 TIMELY PREFETCHES:          0 LATE PREFETCHES: 0 DROPPED PREFETCHES: 0
PSCL4 PREFETCHES SAME FILL-ORIGIN LEVEL: 0 DIFFERENT FILL-ORIGIN LEVEL: 0

PSCL3 TOTAL     ACCESS:     452059  HIT:     448517  MISS:       3542  HIT %:    99.2165  MISS %:   0.783526   MPKI: 0.01771
PSCL3 LOAD TRANSLATION ACCESS:     452059  HIT:     448517  MISS:       3542  HIT %:    99.2165  MISS %:   0.783526   MPKI: 0.01771
PSCL3 PREFETCH  REQUESTED:          0  ISSUED:          0  USEFUL:          0  USELESS:          0
PSCL3 USEFUL LOAD PREFETCHES:          0 PREFETCH ISSUED TO LOWER LEVEL:          0  ACCURACY: -nan
PSCL3 TIMELY PREFETCHES:          0 LATE PREFETCHES: 0 DROPPED PREFETCHES: 0
PSCL3 PREFETCHES SAME FILL-ORIGIN LEVEL: 0 DIFFERENT FILL-ORIGIN LEVEL: 0

PSCL2 TOTAL     ACCESS:     455514  HIT:     337442  MISS:     118072  HIT %:    74.0794  MISS %:    25.9206   MPKI: 0.59036
PSCL2 LOAD TRANSLATION ACCESS:     455514  HIT:     337442  MISS:     118072  HIT %:    74.0794  MISS %:    25.9206   MPKI: 0.59036
PSCL2 PREFETCH  REQUESTED:          0  ISSUED:          0  USEFUL:          0  USELESS:          0
PSCL2 USEFUL LOAD PREFETCHES:          0 PREFETCH ISSUED TO LOWER LEVEL:          0  ACCURACY: -nan
PSCL2 TIMELY PREFETCHES:          0 LATE PREFETCHES: 0 DROPPED PREFETCHES: 0
PSCL2 PREFETCHES SAME FILL-ORIGIN LEVEL: 0 DIFFERENT FILL-ORIGIN LEVEL: 0

LLC TOTAL     ACCESS:    4516248  HIT:    4247399  MISS:     268849  HIT %:    94.0471  MISS %:    5.95293   MPKI: 1.34424
LLC LOAD      ACCESS:    2962091  HIT:    2913576  MISS:      48515  HIT %:    98.3621  MISS %:    1.63786   MPKI: 0.242575
LLC RFO       ACCESS:     179434  HIT:     140824  MISS:      38610  HIT %:    78.4823  MISS %:    21.5177   MPKI: 0.19305
LLC PREFETCH  ACCESS:     640662  HIT:     476400  MISS:     164262  HIT %:    74.3606  MISS %:    25.6394   MPKI: 0.82131
AGUS PREFETCH L1 MISS: 0
LLC WRITEBACK ACCESS:     503788  HIT:     490127  MISS:      13661  HIT %:    97.2883  MISS %:    2.71166   MPKI: 0.068305
LLC LOAD TRANSLATION ACCESS:     230273  HIT:     226472  MISS:       3801  HIT %:    98.3494  MISS %:    1.65065   MPKI: 0.019005
LLC PREFETCH  REQUESTED:          0  ISSUED:          0  USEFUL:       4477  USELESS:     161426
LLC USEFUL LOAD PREFETCHES:       4477 PREFETCH ISSUED TO LOWER LEVEL:     164262  ACCURACY: 2.72552
LLC TIMELY PREFETCHES:       4477 LATE PREFETCHES: 0 DROPPED PREFETCHES: 0
LLC PREFETCHES SAME FILL-ORIGIN LEVEL: 0 DIFFERENT FILL-ORIGIN LEVEL: 0
LLC AVERAGE MISS LATENCY: 163.982 cycles
LLC RQ	ACCESS:    3371798	FORWARD:          0	MERGED:          0	TO_CACHE:    3371798
LLC WQ	ACCESS:     503788	FORWARD:          0	MERGED:          0	TO_CACHE:     503788
LLC PQ	ACCESS:     640662	FORWARD:          0	MERGED:          0	TO_CACHE:     640662

LLC Dense regions hint to LLC: 0

RAW hits: 2530696
Loads Generated: 44805389
Loads sent to L1D: 42274691
Stores Generated: 20137757
Stores sent to L1D: 20137758
Major fault: 0 Minor fault: 4255
Allocated PAGES: 4255
[Bingo] PHT Access: 845383
[Bingo] PHT Hit PC+Addr: 406094
[Bingo] PHT Hit PC+Offs: 28353
[Bingo] PHT Miss: 410936
[Bingo] Prefetch PC+Addr: 0
[Bingo] Prefetch PC+Offs: 0
[Bingo] Useful PC+Addr: 0
[Bingo] Useful PC+Offs: 0
[Bingo] Useless PC+Addr: 0
[Bingo] Useless PC+Offs: 0
[Bingo] L1 Prefetch per Region: 0
[Bingo] L2 Prefetch per Region: 4.23689
[Bingo] L3 Prefetch per Region: 0
[Bingo] No Prefetch per Region: 27.7631
[Bingo] Number of Voters Mean: 2.72811
[Bingo] Number of Voters SD: 4.34338
PHT read accesses: 4658469
PHT write accesses: 330734
AT read accesses: 1390683
AT write accesses: 1630763
FT read accesses: 1025283
FT write accesses: 845383
PS read accesses: 887668
PS write accesses: 434447
PHT tag read accesses: 13381949
PHT tag write accesses: 736828
AT tag read accesses: 114434184
AT tag write accesses: 1721415
FT tag read accesses: 113419894
FT tag write accesses: 1535237
PS tag read accesses: 48986059
PS tag write accesses: 1321305

DRAM Statistics
 CHANNEL 0
 RQ ROW_BUFFER_HIT:      89566  ROW_BUFFER_MISS:     165622
 DBUS_CONGESTED:        127
 WQ ROW_BUFFER_HIT:      17068  ROW_BUFFER_MISS:     183562  FULL:          0

 AVG_CONGESTED_CYCLE: 4
 All warmup complete: 2
Channel 0 Bank busy for read cycles: 0
Channel 0 Bank busy for write cycles: 0
Channel 0
Rank 0
0banks busy for read cycles: 441027404
0banks busy for write cycles: 49039
1banks busy for read cycles: 7397752
1banks busy for write cycles: 5504127
2banks busy for read cycles: 1580045
2banks busy for write cycles: 1604535
3banks busy for read cycles: 615351
3banks busy for write cycles: 829294
4banks busy for read cycles: 355181
4banks busy for write cycles: 582704
5banks busy for read cycles: 271701
5banks busy for write cycles: 506237
6banks busy for read cycles: 276403
6banks busy for write cycles: 505192
7banks busy for read cycles: 411220
7banks busy for write cycles: 602117
8banks busy for read cycles: 1200407
8banks busy for write cycles: 1034799

CPU 0 Branch Prediction Accuracy: 99.8263% MPKI: 0.313815 Average ROB Occupancy at Mispredict: 29.2767
Branch types
NOT_BRANCH: 163866778 81.9334%
BRANCH_DIRECT_JUMP: 1746702 0.873351%
BRANCH_INDIRECT: 9682796 4.8414%
BRANCH_CONDITIONAL: 18120126 9.06006%
BRANCH_DIRECT_CALL: 2563120 1.28156%
BRANCH_INDIRECT_CALL: 725676 0.362838%
BRANCH_RETURN: 3294467 1.64723%
BRANCH_OTHER: 0 0%

DRAM PAGES: 1048576
Allocated PAGES: 4255
