
*** ChampSim Multicore Out-of-Order Simulator ***

Warmup Instructions: 50000000
Simulation Instructions: 200000000
Number of CPUs: 1
LLC sets: 2048
LLC ways: 16
Off-chip DRAM Size: 4096 MB Channels: 1 Width: 64-bit Data Rate: 6400 MT/s
CPU 0 runs traces/spec2k17/srv_64.champsimtrace.xz
.xz
BTB has LRU replacement policy
ITLB has LRU replacement policy
DTLB has LRU replacement policy
STLB has LRU replacement policy
L1I has LRU replacement policy
L1D has LRU replacement policy
Bingo PHT WAYS: 16 and PHT_SIZE: 16384
Initialize SRRIP state for L2C
Initialize DRRIP state for LLC
Heartbeat CPU 0 instructions: 10000003 cycles: 2761868 heartbeat IPC: 3.62074 cumulative IPC: 3.62074 (Simulation time: 0 hr 0 min 33 sec) 
Heartbeat CPU 0 instructions: 20000001 cycles: 5521178 heartbeat IPC: 3.62409 cumulative IPC: 3.62242 (Simulation time: 0 hr 1 min 7 sec) 
Heartbeat CPU 0 instructions: 30000002 cycles: 8280000 heartbeat IPC: 3.62474 cumulative IPC: 3.62319 (Simulation time: 0 hr 1 min 41 sec) 
*** Reached end of trace for Core: 0 Repeating trace: traces/spec2k17/srv_64.champsimtrace.xz
Heartbeat CPU 0 instructions: 40000003 cycles: 11037379 heartbeat IPC: 3.62663 cumulative IPC: 3.62405 (Simulation time: 0 hr 2 min 13 sec) 
Heartbeat CPU 0 instructions: 50000001 cycles: 13795593 heartbeat IPC: 3.62553 cumulative IPC: 3.62435 (Simulation time: 0 hr 2 min 47 sec) 

Warmup complete CPU 0 instructions: 50000001 cycles: 13795593 (Simulation time: 0 hr 2 min 47 sec) 

Heartbeat CPU 0 instructions: 60000000 cycles: 35268646 heartbeat IPC: 0.4657 cumulative IPC: 0.4657 (Simulation time: 0 hr 3 min 40 sec) 
*** Reached end of trace for Core: 0 Repeating trace: traces/spec2k17/srv_64.champsimtrace.xz
Heartbeat CPU 0 instructions: 70000001 cycles: 56484521 heartbeat IPC: 0.471345 cumulative IPC: 0.468506 (Simulation time: 0 hr 4 min 31 sec) 
Heartbeat CPU 0 instructions: 80000002 cycles: 77405387 heartbeat IPC: 0.477992 cumulative IPC: 0.471626 (Simulation time: 0 hr 5 min 24 sec) 
Heartbeat CPU 0 instructions: 90000000 cycles: 98897766 heartbeat IPC: 0.465281 cumulative IPC: 0.470023 (Simulation time: 0 hr 6 min 14 sec) 
*** Reached end of trace for Core: 0 Repeating trace: traces/spec2k17/srv_64.champsimtrace.xz
Heartbeat CPU 0 instructions: 100000000 cycles: 120184183 heartbeat IPC: 0.469783 cumulative IPC: 0.469975 (Simulation time: 0 hr 7 min 8 sec) 
Heartbeat CPU 0 instructions: 110000000 cycles: 141155696 heartbeat IPC: 0.476837 cumulative IPC: 0.471105 (Simulation time: 0 hr 8 min 0 sec) 
Heartbeat CPU 0 instructions: 120000000 cycles: 162521607 heartbeat IPC: 0.468035 cumulative IPC: 0.470664 (Simulation time: 0 hr 8 min 53 sec) 
*** Reached end of trace for Core: 0 Repeating trace: traces/spec2k17/srv_64.champsimtrace.xz
Heartbeat CPU 0 instructions: 130000003 cycles: 183772080 heartbeat IPC: 0.470578 cumulative IPC: 0.470653 (Simulation time: 0 hr 9 min 43 sec) 
Heartbeat CPU 0 instructions: 140000003 cycles: 204680682 heartbeat IPC: 0.478272 cumulative IPC: 0.471488 (Simulation time: 0 hr 10 min 30 sec) 
Heartbeat CPU 0 instructions: 150000000 cycles: 226164279 heartbeat IPC: 0.465471 cumulative IPC: 0.470879 (Simulation time: 0 hr 11 min 22 sec) 
*** Reached end of trace for Core: 0 Repeating trace: traces/spec2k17/srv_64.champsimtrace.xz
Heartbeat CPU 0 instructions: 160000003 cycles: 247381566 heartbeat IPC: 0.471314 cumulative IPC: 0.470919 (Simulation time: 0 hr 12 min 16 sec) 
Heartbeat CPU 0 instructions: 170000003 cycles: 268306230 heartbeat IPC: 0.477905 cumulative IPC: 0.471493 (Simulation time: 0 hr 13 min 6 sec) 
Heartbeat CPU 0 instructions: 180000000 cycles: 289674740 heartbeat IPC: 0.467978 cumulative IPC: 0.471221 (Simulation time: 0 hr 13 min 54 sec) 
*** Reached end of trace for Core: 0 Repeating trace: traces/spec2k17/srv_64.champsimtrace.xz
Heartbeat CPU 0 instructions: 190000001 cycles: 310924618 heartbeat IPC: 0.470591 cumulative IPC: 0.471176 (Simulation time: 0 hr 14 min 41 sec) 
Heartbeat CPU 0 instructions: 200000001 cycles: 332003622 heartbeat IPC: 0.474406 cumulative IPC: 0.47139 (Simulation time: 0 hr 15 min 31 sec) 
Heartbeat CPU 0 instructions: 210000002 cycles: 353271777 heartbeat IPC: 0.470187 cumulative IPC: 0.471314 (Simulation time: 0 hr 16 min 24 sec) 
*** Reached end of trace for Core: 0 Repeating trace: traces/spec2k17/srv_64.champsimtrace.xz
Heartbeat CPU 0 instructions: 220000000 cycles: 374650347 heartbeat IPC: 0.467758 cumulative IPC: 0.471104 (Simulation time: 0 hr 17 min 12 sec) 
Heartbeat CPU 0 instructions: 230000002 cycles: 395599859 heartbeat IPC: 0.477338 cumulative IPC: 0.471446 (Simulation time: 0 hr 18 min 4 sec) 
Heartbeat CPU 0 instructions: 240000002 cycles: 416720084 heartbeat IPC: 0.47348 cumulative IPC: 0.471552 (Simulation time: 0 hr 18 min 38 sec) 
*** Reached end of trace for Core: 0 Repeating trace: traces/spec2k17/srv_64.champsimtrace.xz
Heartbeat CPU 0 instructions: 250000002 cycles: 438020140 heartbeat IPC: 0.469482 cumulative IPC: 0.471448 (Simulation time: 0 hr 19 min 10 sec) 
Finished CPU 0 instructions: 200000001 cycles: 424224547 cumulative IPC: 0.471448 (Simulation time: 0 hr 19 min 10 sec) 

ChampSim completed all CPUs

Region of Interest Statistics

CPU 0 cumulative IPC: 0.471448 instructions: 200000001 cycles: 424224547
ITLB TOTAL     ACCESS:   31179346  HIT:   30378586  MISS:     800760  HIT %:    97.4318  MISS %:    2.56824   MPKI: 4.0038
ITLB LOAD TRANSLATION ACCESS:   31179346  HIT:   30378586  MISS:     800760  HIT %:    97.4318  MISS %:    2.56824   MPKI: 4.0038
ITLB PREFETCH  REQUESTED:          0  ISSUED:          0  USEFUL:          0  USELESS:          0
ITLB USEFUL LOAD PREFETCHES:          0 PREFETCH ISSUED TO LOWER LEVEL:          0  ACCURACY: -nan
ITLB TIMELY PREFETCHES:          0 LATE PREFETCHES: 0 DROPPED PREFETCHES: 0
ITLB PREFETCHES SAME FILL-ORIGIN LEVEL: 0 DIFFERENT FILL-ORIGIN LEVEL: 0
ITLB AVERAGE MISS LATENCY: 13.5871 cycles
ITLB RQ	ACCESS:   38102346	FORWARD:          0	MERGED:    6720843	TO_CACHE:   31381503

DTLB TOTAL     ACCESS:   37306396  HIT:   34700859  MISS:    2605537  HIT %:    93.0158  MISS %:    6.98416   MPKI: 13.0277
DTLB LOAD TRANSLATION ACCESS:   37306396  HIT:   34700859  MISS:    2605537  HIT %:    93.0158  MISS %:    6.98416   MPKI: 13.0277
DTLB PREFETCH  REQUESTED:          0  ISSUED:          0  USEFUL:          0  USELESS:          0
DTLB USEFUL LOAD PREFETCHES:          0 PREFETCH ISSUED TO LOWER LEVEL:          0  ACCURACY: -nan
DTLB TIMELY PREFETCHES:          0 LATE PREFETCHES: 0 DROPPED PREFETCHES: 0
DTLB PREFETCHES SAME FILL-ORIGIN LEVEL: 0 DIFFERENT FILL-ORIGIN LEVEL: 0
DTLB AVERAGE MISS LATENCY: 13.586 cycles
DTLB RQ	ACCESS:   47589043	FORWARD:          0	MERGED:   10135489	TO_CACHE:   37453554

STLB TOTAL     ACCESS:    3406296  HIT:    3086270  MISS:     320026  HIT %:    90.6049  MISS %:    9.39513   MPKI: 1.60013
STLB LOAD TRANSLATION ACCESS:    3406296  HIT:    3086270  MISS:     320026  HIT %:    90.6049  MISS %:    9.39513   MPKI: 1.60013
STLB PREFETCH  REQUESTED:          0  ISSUED:          0  USEFUL:          0  USELESS:          0
STLB USEFUL LOAD PREFETCHES:          0 PREFETCH ISSUED TO LOWER LEVEL:          0  ACCURACY: -nan
STLB TIMELY PREFETCHES:          0 LATE PREFETCHES: 0 DROPPED PREFETCHES: 0
STLB PREFETCHES SAME FILL-ORIGIN LEVEL: 0 DIFFERENT FILL-ORIGIN LEVEL: 0
STLB AVERAGE MISS LATENCY: 48.5278 cycles
STLB RQ	ACCESS:    3406296	FORWARD:          0	MERGED:          0	TO_CACHE:    3406296

STLB Hit, L1D data hit: 0
STLB Hit, L2C data hit: 0
STLB Hit, LLC data hit: 0
STLB Hit, LLC data miss: 0
STLB STLB hints to L2: 0
L1D TOTAL     ACCESS:   47109347  HIT:   44653378  MISS:    2455969  HIT %:    94.7867  MISS %:    5.21334   MPKI: 12.2798
L1D LOAD      ACCESS:   27649322  HIT:   25526662  MISS:    2122660  HIT %:    92.3229  MISS %:    7.67708   MPKI: 10.6133
L1D RFO       ACCESS:   19460025  HIT:   19126716  MISS:     333309  HIT %:    98.2872  MISS %:    1.71279   MPKI: 1.66654
L1D PREFETCH  REQUESTED:          0  ISSUED:          0  USEFUL:          0  USELESS:          0
L1D USEFUL LOAD PREFETCHES:          0 PREFETCH ISSUED TO LOWER LEVEL:          0  ACCURACY: -nan
L1D TIMELY PREFETCHES:          0 LATE PREFETCHES: 0 DROPPED PREFETCHES: 0
L1D PREFETCHES SAME FILL-ORIGIN LEVEL: 0 DIFFERENT FILL-ORIGIN LEVEL: 0
L1D AVERAGE MISS LATENCY: 28.43 cycles
L1D RQ	ACCESS:   42172772	FORWARD:          0	MERGED:   14224376	TO_CACHE:   27725657
L1D WQ	ACCESS:   20142213	FORWARD:     222739	MERGED:     278827	TO_CACHE:   19863386

L1D UNIQUE REGIONS ACCESSED: 0
L1D REGIONS CONFLICTS: 0
L1D Cross Page Prefetch Requests: 0
L1D Same Page Prefetch Requests: 0
L1D ROI Sum of L1D PQ occupancy: 0
L1D PREFETCHES PUSHED FROM L2C: 0
L1I TOTAL     ACCESS:   36262882  HIT:   31135206  MISS:    5127676  HIT %:    85.8597  MISS %:    14.1403   MPKI: 25.6384
L1I LOAD      ACCESS:   36262882  HIT:   31135206  MISS:    5127676  HIT %:    85.8597  MISS %:    14.1403   MPKI: 25.6384
L1I PREFETCH  REQUESTED:          0  ISSUED:          0  USEFUL:          0  USELESS:          0
L1I USEFUL LOAD PREFETCHES:          0 PREFETCH ISSUED TO LOWER LEVEL:          0  ACCURACY: -nan
L1I TIMELY PREFETCHES:          0 LATE PREFETCHES: 0 DROPPED PREFETCHES: 0
L1I PREFETCHES SAME FILL-ORIGIN LEVEL: 0 DIFFERENT FILL-ORIGIN LEVEL: 0
L1I AVERAGE MISS LATENCY: 25.3043 cycles
L1I RQ	ACCESS:   57090606	FORWARD:          0	MERGED:   18988260	TO_CACHE:   38102346

BTB TOTAL     ACCESS:   22126818  HIT:   17903555  MISS:    4223263  HIT %:    80.9134  MISS %:    19.0866   MPKI: 21.1163
BTB BRANCH_DIRECT_JUMP	ACCESS:    1749818  HIT:    1515945  MISS:     233873
BTB BRANCH_INDIRECT	ACCESS:    9526517  HIT:    7477995  MISS:    2048522
BTB BRANCH_CONDITIONAL	ACCESS:    4523784  HIT:    4140510  MISS:     383274
BTB BRANCH_DIRECT_CALL	ACCESS:    2479596  HIT:    2022582  MISS:     457014
BTB BRANCH_INDIRECT_CALL	ACCESS:     683372  HIT:     643593  MISS:      39779
BTB BRANCH_RETURN	ACCESS:    3163731  HIT:    2102930  MISS:    1060801
BTB BRANCH_OTHER ACCESS:          0  HIT:          0  MISS:          0

L2C TOTAL     ACCESS:   10376496  HIT:    7174925  MISS:    3201571  HIT %:    69.1459  MISS %:    30.8541   MPKI: 16.0079
L2C LOAD      ACCESS:    7250233  HIT:    4917686  MISS:    2332547  HIT %:     67.828  MISS %:     32.172   MPKI: 11.6627
L2C DATA LOAD MPKI: 2.22698
L2C INSTRUCTION LOAD MPKI: 9.43575
L2C RFO       ACCESS:     333308  HIT:     185576  MISS:     147732  HIT %:     55.677  MISS %:     44.323   MPKI: 0.73866
L2C PREFETCH  ACCESS:    1355707  HIT:     856999  MISS:     498708  HIT %:    63.2142  MISS %:    36.7858   MPKI: 2.49354
AGUS PREFETCH L1 MISS: 0
L2C DATA PREFETCH MPKI: 2.49354
L2C INSTRUCTION PREFETCH MPKI: 0
L2C WRITEBACK ACCESS:    1012412  HIT:     974882  MISS:      37530  HIT %:     96.293  MISS %:    3.70699   MPKI: 0.18765
L2C LOAD TRANSLATION ACCESS:     424836  HIT:     239782  MISS:     185054  HIT %:    56.4411  MISS %:    43.5589   MPKI: 0.92527
L2C PREFETCH  REQUESTED:    1398717  ISSUED:    1398717  USEFUL:     391656  USELESS:     107093
L2C USEFUL LOAD PREFETCHES:     391656 PREFETCH ISSUED TO LOWER LEVEL:     509459  ACCURACY: 76.8768
L2C TIMELY PREFETCHES:     391656 LATE PREFETCHES: 10751 DROPPED PREFETCHES: 0
L2C PREFETCHES SAME FILL-ORIGIN LEVEL: 509459 DIFFERENT FILL-ORIGIN LEVEL: 0
L2C AVERAGE MISS LATENCY: 46.3268 cycles
L2C RQ	ACCESS:    8008481	FORWARD:          0	MERGED:          0	TO_CACHE:    8008377
L2C WQ	ACCESS:    1012412	FORWARD:        107	MERGED:          0	TO_CACHE:    1012412
L2C PQ	ACCESS:    1398717	FORWARD:          0	MERGED:          8	TO_CACHE:    1398706

L2C Instructions Evicting Data 646516
L2C Translations Evicting Data 66275
L2C Data Evicting Data 402118
L2C Instructions Evicting Instructions 1131732
L2C Translations Evicting Instructions 109487
L2C Data Evicting Instructions 624889
L2C Instructions Evicting Translations 108902
L2C Translations Evicting Translations 9292
L2C Data Evicting Translations 64830
L2C Dense regions hint from L2: 0
PSCL5 TOTAL     ACCESS:     320026  HIT:     320026  MISS:          0  HIT %:        100  MISS %:          0   MPKI: 0
PSCL5 LOAD TRANSLATION ACCESS:     320026  HIT:     320026  MISS:          0  HIT %:        100  MISS %:          0   MPKI: 0
PSCL5 PREFETCH  REQUESTED:          0  ISSUED:          0  USEFUL:          0  USELESS:          0
PSCL5 USEFUL LOAD PREFETCHES:          0 PREFETCH ISSUED TO LOWER LEVEL:          0  ACCURACY: -nan
PSCL5 TIMELY PREFETCHES:          0 LATE PREFETCHES: 0 DROPPED PREFETCHES: 0
PSCL5 PREFETCHES SAME FILL-ORIGIN LEVEL: 0 DIFFERENT FILL-ORIGIN LEVEL: 0

PSCL4 TOTAL     ACCESS:     313786  HIT:     312252  MISS:       1534  HIT %:    99.5111  MISS %:   0.488868   MPKI: 0.00767
PSCL4 LOAD TRANSLATION ACCESS:     313786  HIT:     312252  MISS:       1534  HIT %:    99.5111  MISS %:   0.488868   MPKI: 0.00767
PSCL4 PREFETCH  REQUESTED:          0  ISSUED:          0  USEFUL:          0  USELESS:          0
PSCL4 USEFUL LOAD PREFETCHES:          0 PREFETCH ISSUED TO LOWER LEVEL:          0  ACCURACY: -nan
PSCL4 TIMELY PREFETCHES:          0 LATE PREFETCHES: 0 DROPPED PREFETCHES: 0
PSCL4 PREFETCHES SAME FILL-ORIGIN LEVEL: 0 DIFFERENT FILL-ORIGIN LEVEL: 0

PSCL3 TOTAL     ACCESS:     319031  HIT:     317497  MISS:       1534  HIT %:    99.5192  MISS %:   0.480831   MPKI: 0.00767
PSCL3 LOAD TRANSLATION ACCESS:     319031  HIT:     317497  MISS:       1534  HIT %:    99.5192  MISS %:   0.480831   MPKI: 0.00767
PSCL3 PREFETCH  REQUESTED:          0  ISSUED:          0  USEFUL:          0  USELESS:          0
PSCL3 USEFUL LOAD PREFETCHES:          0 PREFETCH ISSUED TO LOWER LEVEL:          0  ACCURACY: -nan
PSCL3 TIMELY PREFETCHES:          0 LATE PREFETCHES: 0 DROPPED PREFETCHES: 0
PSCL3 PREFETCHES SAME FILL-ORIGIN LEVEL: 0 DIFFERENT FILL-ORIGIN LEVEL: 0

PSCL2 TOTAL     ACCESS:     320026  HIT:     218284  MISS:     101742  HIT %:    68.2082  MISS %:    31.7918   MPKI: 0.50871
PSCL2 LOAD TRANSLATION ACCESS:     320026  HIT:     218284  MISS:     101742  HIT %:    68.2082  MISS %:    31.7918   MPKI: 0.50871
PSCL2 PREFETCH  REQUESTED:          0  ISSUED:          0  USEFUL:          0  USELESS:          0
PSCL2 USEFUL LOAD PREFETCHES:          0 PREFETCH ISSUED TO LOWER LEVEL:          0  ACCURACY: -nan
PSCL2 TIMELY PREFETCHES:          0 LATE PREFETCHES: 0 DROPPED PREFETCHES: 0
PSCL2 PREFETCHES SAME FILL-ORIGIN LEVEL: 0 DIFFERENT FILL-ORIGIN LEVEL: 0

LLC TOTAL     ACCESS:    3612327  HIT:    3286370  MISS:     325957  HIT %:    90.9765  MISS %:    9.02346   MPKI: 1.62978
LLC LOAD      ACCESS:    2321889  HIT:    2258344  MISS:      63545  HIT %:    97.2632  MISS %:    2.73678   MPKI: 0.317725
LLC RFO       ACCESS:     147622  HIT:     103708  MISS:      43914  HIT %:    70.2524  MISS %:    29.7476   MPKI: 0.21957
LLC PREFETCH  ACCESS:     509457  HIT:     304080  MISS:     205377  HIT %:    59.6871  MISS %:    40.3129   MPKI: 1.02688
AGUS PREFETCH L1 MISS: 0
LLC WRITEBACK ACCESS:     448305  HIT:     446329  MISS:       1976  HIT %:    99.5592  MISS %:   0.440771   MPKI: 0.00988
LLC LOAD TRANSLATION ACCESS:     185054  HIT:     173909  MISS:      11145  HIT %:    93.9774  MISS %:    6.02257   MPKI: 0.055725
LLC PREFETCH  REQUESTED:          0  ISSUED:          0  USEFUL:       4227  USELESS:     200641
LLC USEFUL LOAD PREFETCHES:       4227 PREFETCH ISSUED TO LOWER LEVEL:     205377  ACCURACY: 2.05817
LLC TIMELY PREFETCHES:       4227 LATE PREFETCHES: 0 DROPPED PREFETCHES: 0
LLC PREFETCHES SAME FILL-ORIGIN LEVEL: 0 DIFFERENT FILL-ORIGIN LEVEL: 0
LLC AVERAGE MISS LATENCY: 164.83 cycles
LLC RQ	ACCESS:    2654582	FORWARD:          0	MERGED:          0	TO_CACHE:    2654565
LLC WQ	ACCESS:     448305	FORWARD:         19	MERGED:          0	TO_CACHE:     448305
LLC PQ	ACCESS:     509459	FORWARD:          0	MERGED:          0	TO_CACHE:     509457

LLC Dense regions hint to LLC: 0

RAW hits: 2636539
Loads Generated: 44809311
Loads sent to L1D: 42172772
Stores Generated: 20142201
Stores sent to L1D: 20142213
Major fault: 0 Minor fault: 5806
Allocated PAGES: 5806
[Bingo] PHT Access: 845142
[Bingo] PHT Hit PC+Addr: 392001
[Bingo] PHT Hit PC+Offs: 46470
[Bingo] PHT Miss: 406671
[Bingo] Prefetch PC+Addr: 0
[Bingo] Prefetch PC+Offs: 0
[Bingo] Useful PC+Addr: 0
[Bingo] Useful PC+Offs: 0
[Bingo] Useless PC+Addr: 0
[Bingo] Useless PC+Offs: 0
[Bingo] L1 Prefetch per Region: 0
[Bingo] L2 Prefetch per Region: 4.19747
[Bingo] L3 Prefetch per Region: 0
[Bingo] No Prefetch per Region: 27.8025
[Bingo] Number of Voters Mean: 5.18111
[Bingo] Number of Voters SD: 5.87226
PHT read accesses: 5073482
PHT write accesses: 328824
AT read accesses: 1349293
AT write accesses: 1602161
FT read accesses: 1016611
FT write accesses: 845142
PS read accesses: 887929
PS write accesses: 438471
PHT tag read accesses: 13698570
PHT tag write accesses: 720825
AT tag read accesses: 100396497
AT tag write accesses: 1678116
FT tag read accesses: 99735841
FT tag write accesses: 1528853
PS tag read accesses: 48726169
PS tag write accesses: 1325835

DRAM Statistics
 CHANNEL 0
 RQ ROW_BUFFER_HIT:     113756  ROW_BUFFER_MISS:     210224
 DBUS_CONGESTED:        123
 WQ ROW_BUFFER_HIT:      27105  ROW_BUFFER_MISS:     188871  FULL:          0

 AVG_CONGESTED_CYCLE: 4
 All warmup complete: 2
Channel 0 Bank busy for read cycles: 0
Channel 0 Bank busy for write cycles: 0
Channel 0
Rank 0
0banks busy for read cycles: 398072966
0banks busy for write cycles: 39987
1banks busy for read cycles: 7591228
1banks busy for write cycles: 4359731
2banks busy for read cycles: 1929367
2banks busy for write cycles: 1638693
3banks busy for read cycles: 1187648
3banks busy for write cycles: 1155215
4banks busy for read cycles: 903902
4banks busy for write cycles: 999406
5banks busy for read cycles: 626109
5banks busy for write cycles: 899055
6banks busy for read cycles: 460087
6banks busy for write cycles: 838094
7banks busy for read cycles: 477555
7banks busy for write cycles: 909333
8banks busy for read cycles: 1170078
8banks busy for write cycles: 966094

CPU 0 Branch Prediction Accuracy: 99.8723% MPKI: 0.229165 Average ROB Occupancy at Mispredict: 50.1747
Branch types
NOT_BRANCH: 164119063 82.0595%
BRANCH_DIRECT_JUMP: 1749818 0.874909%
BRANCH_INDIRECT: 9526517 4.76326%
BRANCH_CONDITIONAL: 18277799 9.1389%
BRANCH_DIRECT_CALL: 2479596 1.2398%
BRANCH_INDIRECT_CALL: 683372 0.341686%
BRANCH_RETURN: 3163731 1.58187%
BRANCH_OTHER: 0 0%

DRAM PAGES: 1048576
Allocated PAGES: 5806
