
*** ChampSim Multicore Out-of-Order Simulator ***

Warmup Instructions: 50000000
Simulation Instructions: 200000000
Number of CPUs: 1
LLC sets: 2048
LLC ways: 16
Off-chip DRAM Size: 4096 MB Channels: 1 Width: 64-bit Data Rate: 6400 MT/s
CPU 0 runs traces/spec2k17/srv_48.champsimtrace.xz
.xz
BTB has LRU replacement policy
ITLB has LRU replacement policy
DTLB has LRU replacement policy
STLB has LRU replacement policy
L1I has LRU replacement policy
L1D has LRU replacement policy
Bingo PHT WAYS: 16 and PHT_SIZE: 16384
Initialize SRRIP state for L2C
Initialize DRRIP state for LLC
Heartbeat CPU 0 instructions: 10000001 cycles: 2945568 heartbeat IPC: 3.39493 cumulative IPC: 3.39493 (Simulation time: 0 hr 0 min 37 sec) 
Heartbeat CPU 0 instructions: 20000001 cycles: 5885108 heartbeat IPC: 3.40189 cumulative IPC: 3.39841 (Simulation time: 0 hr 1 min 17 sec) 
Heartbeat CPU 0 instructions: 30000001 cycles: 8771949 heartbeat IPC: 3.46399 cumulative IPC: 3.41999 (Simulation time: 0 hr 1 min 54 sec) 
*** Reached end of trace for Core: 0 Repeating trace: traces/spec2k17/srv_48.champsimtrace.xz
Heartbeat CPU 0 instructions: 40000002 cycles: 11708731 heartbeat IPC: 3.40509 cumulative IPC: 3.41625 (Simulation time: 0 hr 2 min 31 sec) 
Heartbeat CPU 0 instructions: 50000001 cycles: 14648507 heartbeat IPC: 3.40162 cumulative IPC: 3.41332 (Simulation time: 0 hr 3 min 9 sec) 

Warmup complete CPU 0 instructions: 50000001 cycles: 14648507 (Simulation time: 0 hr 3 min 9 sec) 

Heartbeat CPU 0 instructions: 60000001 cycles: 34127694 heartbeat IPC: 0.513368 cumulative IPC: 0.513368 (Simulation time: 0 hr 4 min 1 sec) 
*** Reached end of trace for Core: 0 Repeating trace: traces/spec2k17/srv_48.champsimtrace.xz
Heartbeat CPU 0 instructions: 70000000 cycles: 55795337 heartbeat IPC: 0.461518 cumulative IPC: 0.486064 (Simulation time: 0 hr 4 min 56 sec) 
Heartbeat CPU 0 instructions: 80000002 cycles: 80655152 heartbeat IPC: 0.402256 cumulative IPC: 0.4545 (Simulation time: 0 hr 5 min 51 sec) 
Heartbeat CPU 0 instructions: 90000000 cycles: 101334102 heartbeat IPC: 0.483583 cumulative IPC: 0.461438 (Simulation time: 0 hr 6 min 41 sec) 
*** Reached end of trace for Core: 0 Repeating trace: traces/spec2k17/srv_48.champsimtrace.xz
Heartbeat CPU 0 instructions: 100000001 cycles: 122436970 heartbeat IPC: 0.473869 cumulative IPC: 0.463872 (Simulation time: 0 hr 7 min 33 sec) 
Heartbeat CPU 0 instructions: 110000000 cycles: 148067110 heartbeat IPC: 0.390166 cumulative IPC: 0.449712 (Simulation time: 0 hr 8 min 30 sec) 
Heartbeat CPU 0 instructions: 120000003 cycles: 168105427 heartbeat IPC: 0.499044 cumulative IPC: 0.456154 (Simulation time: 0 hr 9 min 21 sec) 
*** Reached end of trace for Core: 0 Repeating trace: traces/spec2k17/srv_48.champsimtrace.xz
Heartbeat CPU 0 instructions: 130000002 cycles: 189778296 heartbeat IPC: 0.461406 cumulative IPC: 0.456804 (Simulation time: 0 hr 10 min 14 sec) 
Heartbeat CPU 0 instructions: 140000003 cycles: 215287056 heartbeat IPC: 0.392022 cumulative IPC: 0.448568 (Simulation time: 0 hr 11 min 3 sec) 
Heartbeat CPU 0 instructions: 150000003 cycles: 235373074 heartbeat IPC: 0.497859 cumulative IPC: 0.453053 (Simulation time: 0 hr 11 min 54 sec) 
*** Reached end of trace for Core: 0 Repeating trace: traces/spec2k17/srv_48.champsimtrace.xz
Heartbeat CPU 0 instructions: 160000003 cycles: 257248682 heartbeat IPC: 0.45713 cumulative IPC: 0.453421 (Simulation time: 0 hr 12 min 47 sec) 
Heartbeat CPU 0 instructions: 170000001 cycles: 282231567 heartbeat IPC: 0.400274 cumulative IPC: 0.448459 (Simulation time: 0 hr 13 min 35 sec) 
Heartbeat CPU 0 instructions: 180000000 cycles: 302447614 heartbeat IPC: 0.494657 cumulative IPC: 0.451704 (Simulation time: 0 hr 14 min 23 sec) 
*** Reached end of trace for Core: 0 Repeating trace: traces/spec2k17/srv_48.champsimtrace.xz
Heartbeat CPU 0 instructions: 190000003 cycles: 324612674 heartbeat IPC: 0.451161 cumulative IPC: 0.451665 (Simulation time: 0 hr 15 min 13 sec) 
Heartbeat CPU 0 instructions: 200000000 cycles: 348474133 heartbeat IPC: 0.419086 cumulative IPC: 0.449336 (Simulation time: 0 hr 16 min 3 sec) 
Heartbeat CPU 0 instructions: 210000001 cycles: 370295202 heartbeat IPC: 0.458273 cumulative IPC: 0.449885 (Simulation time: 0 hr 16 min 53 sec) 
*** Reached end of trace for Core: 0 Repeating trace: traces/spec2k17/srv_48.champsimtrace.xz
Heartbeat CPU 0 instructions: 220000000 cycles: 391694770 heartbeat IPC: 0.467299 cumulative IPC: 0.450873 (Simulation time: 0 hr 17 min 45 sec) 
Heartbeat CPU 0 instructions: 230000003 cycles: 415779809 heartbeat IPC: 0.415196 cumulative IPC: 0.448731 (Simulation time: 0 hr 18 min 40 sec) 
Heartbeat CPU 0 instructions: 240000003 cycles: 438312098 heartbeat IPC: 0.443808 cumulative IPC: 0.448469 (Simulation time: 0 hr 19 min 29 sec) 
*** Reached end of trace for Core: 0 Repeating trace: traces/spec2k17/srv_48.champsimtrace.xz
Heartbeat CPU 0 instructions: 250000000 cycles: 458852252 heartbeat IPC: 0.486851 cumulative IPC: 0.450244 (Simulation time: 0 hr 20 min 11 sec) 
Finished CPU 0 instructions: 200000001 cycles: 444203761 cumulative IPC: 0.450244 (Simulation time: 0 hr 20 min 11 sec) 

ChampSim completed all CPUs

Region of Interest Statistics

CPU 0 cumulative IPC: 0.450244 instructions: 200000001 cycles: 444203761
ITLB TOTAL     ACCESS:   34347492  HIT:   33298518  MISS:    1048974  HIT %:     96.946  MISS %:      3.054   MPKI: 5.24487
ITLB LOAD TRANSLATION ACCESS:   34347492  HIT:   33298518  MISS:    1048974  HIT %:     96.946  MISS %:      3.054   MPKI: 5.24487
ITLB PREFETCH  REQUESTED:          0  ISSUED:          0  USEFUL:          0  USELESS:          0
ITLB USEFUL LOAD PREFETCHES:          0 PREFETCH ISSUED TO LOWER LEVEL:          0  ACCURACY: -nan
ITLB TIMELY PREFETCHES:          0 LATE PREFETCHES: 0 DROPPED PREFETCHES: 0
ITLB PREFETCHES SAME FILL-ORIGIN LEVEL: 0 DIFFERENT FILL-ORIGIN LEVEL: 0
ITLB AVERAGE MISS LATENCY: 10.0533 cycles
ITLB RQ	ACCESS:   39534217	FORWARD:          0	MERGED:    4889028	TO_CACHE:   34645189

DTLB TOTAL     ACCESS:   43388244  HIT:   42352883  MISS:    1035361  HIT %:    97.6137  MISS %:    2.38627   MPKI: 5.1768
DTLB LOAD TRANSLATION ACCESS:   43388244  HIT:   42352883  MISS:    1035361  HIT %:    97.6137  MISS %:    2.38627   MPKI: 5.1768
DTLB PREFETCH  REQUESTED:          0  ISSUED:          0  USEFUL:          0  USELESS:          0
DTLB USEFUL LOAD PREFETCHES:          0 PREFETCH ISSUED TO LOWER LEVEL:          0  ACCURACY: -nan
DTLB TIMELY PREFETCHES:          0 LATE PREFETCHES: 0 DROPPED PREFETCHES: 0
DTLB PREFETCHES SAME FILL-ORIGIN LEVEL: 0 DIFFERENT FILL-ORIGIN LEVEL: 0
DTLB AVERAGE MISS LATENCY: 14.7584 cycles
DTLB RQ	ACCESS:   58670826	FORWARD:          0	MERGED:   15200841	TO_CACHE:   43469985

STLB TOTAL     ACCESS:    2084335  HIT:    2005917  MISS:      78418  HIT %:    96.2377  MISS %:    3.76226   MPKI: 0.39209
STLB LOAD TRANSLATION ACCESS:    2084335  HIT:    2005917  MISS:      78418  HIT %:    96.2377  MISS %:    3.76226   MPKI: 0.39209
STLB PREFETCH  REQUESTED:          0  ISSUED:          0  USEFUL:          0  USELESS:          0
STLB USEFUL LOAD PREFETCHES:          0 PREFETCH ISSUED TO LOWER LEVEL:          0  ACCURACY: -nan
STLB TIMELY PREFETCHES:          0 LATE PREFETCHES: 0 DROPPED PREFETCHES: 0
STLB PREFETCHES SAME FILL-ORIGIN LEVEL: 0 DIFFERENT FILL-ORIGIN LEVEL: 0
STLB AVERAGE MISS LATENCY: 89.9337 cycles
STLB RQ	ACCESS:    2084335	FORWARD:          0	MERGED:          0	TO_CACHE:    2084335

STLB Hit, L1D data hit: 0
STLB Hit, L2C data hit: 0
STLB Hit, LLC data hit: 0
STLB Hit, LLC data miss: 0
STLB STLB hints to L2: 0
L1D TOTAL     ACCESS:   56565777  HIT:   54179556  MISS:    2386221  HIT %:    95.7815  MISS %:    4.21849   MPKI: 11.9311
L1D LOAD      ACCESS:   36461264  HIT:   34894849  MISS:    1566415  HIT %:    95.7039  MISS %:    4.29611   MPKI: 7.83207
L1D RFO       ACCESS:   20104513  HIT:   19284707  MISS:     819806  HIT %:    95.9223  MISS %:    4.07772   MPKI: 4.09903
L1D PREFETCH  REQUESTED:          0  ISSUED:          0  USEFUL:          0  USELESS:          0
L1D USEFUL LOAD PREFETCHES:          0 PREFETCH ISSUED TO LOWER LEVEL:          0  ACCURACY: -nan
L1D TIMELY PREFETCHES:          0 LATE PREFETCHES: 0 DROPPED PREFETCHES: 0
L1D PREFETCHES SAME FILL-ORIGIN LEVEL: 0 DIFFERENT FILL-ORIGIN LEVEL: 0
L1D AVERAGE MISS LATENCY: 62.8167 cycles
L1D RQ	ACCESS:   51423700	FORWARD:          0	MERGED:   14653323	TO_CACHE:   36564133
L1D WQ	ACCESS:   22494716	FORWARD:     206244	MERGED:     388023	TO_CACHE:   22106693

L1D UNIQUE REGIONS ACCESSED: 0
L1D REGIONS CONFLICTS: 0
L1D Cross Page Prefetch Requests: 0
L1D Same Page Prefetch Requests: 0
L1D ROI Sum of L1D PQ occupancy: 0
L1D PREFETCHES PUSHED FROM L2C: 0
L1I TOTAL     ACCESS:   38919787  HIT:   34639293  MISS:    4280494  HIT %:    89.0018  MISS %:    10.9982   MPKI: 21.4025
L1I LOAD      ACCESS:   38919787  HIT:   34639293  MISS:    4280494  HIT %:    89.0018  MISS %:    10.9982   MPKI: 21.4025
L1I PREFETCH  REQUESTED:          0  ISSUED:          0  USEFUL:          0  USELESS:          0
L1I USEFUL LOAD PREFETCHES:          0 PREFETCH ISSUED TO LOWER LEVEL:          0  ACCURACY: -nan
L1I TIMELY PREFETCHES:          0 LATE PREFETCHES: 0 DROPPED PREFETCHES: 0
L1I PREFETCHES SAME FILL-ORIGIN LEVEL: 0 DIFFERENT FILL-ORIGIN LEVEL: 0
L1I AVERAGE MISS LATENCY: 24.1395 cycles
L1I RQ	ACCESS:   59769680	FORWARD:          0	MERGED:   20235463	TO_CACHE:   39534217

BTB TOTAL     ACCESS:   30523112  HIT:   24853883  MISS:    5669229  HIT %:    81.4264  MISS %:    18.5736   MPKI: 28.3461
BTB BRANCH_DIRECT_JUMP	ACCESS:    2968490  HIT:    2593261  MISS:     375229
BTB BRANCH_INDIRECT	ACCESS:   12251247  HIT:   10058571  MISS:    2192676
BTB BRANCH_CONDITIONAL	ACCESS:    7936948  HIT:    7475794  MISS:     461154
BTB BRANCH_DIRECT_CALL	ACCESS:    2719215  HIT:    2029531  MISS:     689684
BTB BRANCH_INDIRECT_CALL	ACCESS:     964038  HIT:     680841  MISS:     283197
BTB BRANCH_RETURN	ACCESS:    3683174  HIT:    2015885  MISS:    1667289
BTB BRANCH_OTHER ACCESS:          0  HIT:          0  MISS:          0

L2C TOTAL     ACCESS:    9153910  HIT:    6465942  MISS:    2687968  HIT %:    70.6358  MISS %:    29.3642   MPKI: 13.4398
L2C LOAD      ACCESS:    5846866  HIT:    4305536  MISS:    1541330  HIT %:    73.6384  MISS %:    26.3616   MPKI: 7.70665
L2C DATA LOAD MPKI: 1.35239
L2C INSTRUCTION LOAD MPKI: 6.35426
L2C RFO       ACCESS:     819792  HIT:     307542  MISS:     512250  HIT %:    37.5146  MISS %:    62.4854   MPKI: 2.56125
L2C PREFETCH  ACCESS:    1157512  HIT:     660863  MISS:     496649  HIT %:    57.0934  MISS %:    42.9066   MPKI: 2.48324
AGUS PREFETCH L1 MISS: 0
L2C DATA PREFETCH MPKI: 2.48324
L2C INSTRUCTION PREFETCH MPKI: 0
L2C WRITEBACK ACCESS:    1212188  HIT:    1142476  MISS:      69712  HIT %:    94.2491  MISS %:    5.75092   MPKI: 0.34856
L2C LOAD TRANSLATION ACCESS:     117552  HIT:      49525  MISS:      68027  HIT %:    42.1303  MISS %:    57.8697   MPKI: 0.340135
L2C PREFETCH  REQUESTED:    1194492  ISSUED:    1194492  USEFUL:     331318  USELESS:     165358
L2C USEFUL LOAD PREFETCHES:     331318 PREFETCH ISSUED TO LOWER LEVEL:     511805  ACCURACY: 64.7352
L2C TIMELY PREFETCHES:     331318 LATE PREFETCHES: 15156 DROPPED PREFETCHES: 0
L2C PREFETCHES SAME FILL-ORIGIN LEVEL: 511805 DIFFERENT FILL-ORIGIN LEVEL: 0
L2C AVERAGE MISS LATENCY: 84.3397 cycles
L2C RQ	ACCESS:    6784266	FORWARD:          0	MERGED:          0	TO_CACHE:    6784210
L2C WQ	ACCESS:    1212188	FORWARD:         78	MERGED:          0	TO_CACHE:    1212188
L2C PQ	ACCESS:    1194492	FORWARD:          0	MERGED:          0	TO_CACHE:    1194470

L2C Instructions Evicting Data 608298
L2C Translations Evicting Data 36683
L2C Data Evicting Data 666671
L2C Instructions Evicting Instructions 632983
L2C Translations Evicting Instructions 29308
L2C Data Evicting Instructions 577646
L2C Instructions Evicting Translations 29571
L2C Translations Evicting Translations 2036
L2C Data Evicting Translations 35060
L2C Dense regions hint from L2: 0
PSCL5 TOTAL     ACCESS:      78418  HIT:      78418  MISS:          0  HIT %:        100  MISS %:          0   MPKI: 0
PSCL5 LOAD TRANSLATION ACCESS:      78418  HIT:      78418  MISS:          0  HIT %:        100  MISS %:          0   MPKI: 0
PSCL5 PREFETCH  REQUESTED:          0  ISSUED:          0  USEFUL:          0  USELESS:          0
PSCL5 USEFUL LOAD PREFETCHES:          0 PREFETCH ISSUED TO LOWER LEVEL:          0  ACCURACY: -nan
PSCL5 TIMELY PREFETCHES:          0 LATE PREFETCHES: 0 DROPPED PREFETCHES: 0
PSCL5 PREFETCHES SAME FILL-ORIGIN LEVEL: 0 DIFFERENT FILL-ORIGIN LEVEL: 0

PSCL4 TOTAL     ACCESS:      75353  HIT:      74463  MISS:        890  HIT %:    98.8189  MISS %:    1.18111   MPKI: 0.00445
PSCL4 LOAD TRANSLATION ACCESS:      75353  HIT:      74463  MISS:        890  HIT %:    98.8189  MISS %:    1.18111   MPKI: 0.00445
PSCL4 PREFETCH  REQUESTED:          0  ISSUED:          0  USEFUL:          0  USELESS:          0
PSCL4 USEFUL LOAD PREFETCHES:          0 PREFETCH ISSUED TO LOWER LEVEL:          0  ACCURACY: -nan
PSCL4 TIMELY PREFETCHES:          0 LATE PREFETCHES: 0 DROPPED PREFETCHES: 0
PSCL4 PREFETCHES SAME FILL-ORIGIN LEVEL: 0 DIFFERENT FILL-ORIGIN LEVEL: 0

PSCL3 TOTAL     ACCESS:      71549  HIT:      61722  MISS:       9827  HIT %:    86.2654  MISS %:    13.7346   MPKI: 0.049135
PSCL3 LOAD TRANSLATION ACCESS:      71549  HIT:      61722  MISS:       9827  HIT %:    86.2654  MISS %:    13.7346   MPKI: 0.049135
PSCL3 PREFETCH  REQUESTED:          0  ISSUED:          0  USEFUL:          0  USELESS:          0
PSCL3 USEFUL LOAD PREFETCHES:          0 PREFETCH ISSUED TO LOWER LEVEL:          0  ACCURACY: -nan
PSCL3 TIMELY PREFETCHES:          0 LATE PREFETCHES: 0 DROPPED PREFETCHES: 0
PSCL3 PREFETCHES SAME FILL-ORIGIN LEVEL: 0 DIFFERENT FILL-ORIGIN LEVEL: 0

PSCL2 TOTAL     ACCESS:      78418  HIT:      50001  MISS:      28417  HIT %:    63.7621  MISS %:    36.2379   MPKI: 0.142085
PSCL2 LOAD TRANSLATION ACCESS:      78418  HIT:      50001  MISS:      28417  HIT %:    63.7621  MISS %:    36.2379   MPKI: 0.142085
PSCL2 PREFETCH  REQUESTED:          0  ISSUED:          0  USEFUL:          0  USELESS:          0
PSCL2 USEFUL LOAD PREFETCHES:          0 PREFETCH ISSUED TO LOWER LEVEL:          0  ACCURACY: -nan
PSCL2 TIMELY PREFETCHES:          0 LATE PREFETCHES: 0 DROPPED PREFETCHES: 0
PSCL2 PREFETCHES SAME FILL-ORIGIN LEVEL: 0 DIFFERENT FILL-ORIGIN LEVEL: 0

LLC TOTAL     ACCESS:    3288611  HIT:    2599414  MISS:     689197  HIT %:    79.0429  MISS %:    20.9571   MPKI: 3.44598
LLC LOAD      ACCESS:    1526312  HIT:    1409228  MISS:     117084  HIT %:     92.329  MISS %:    7.67104   MPKI: 0.58542
LLC RFO       ACCESS:     512100  HIT:     208250  MISS:     303850  HIT %:    40.6659  MISS %:    59.3341   MPKI: 1.51925
LLC PREFETCH  ACCESS:     511805  HIT:     266894  MISS:     244911  HIT %:    52.1476  MISS %:    47.8524   MPKI: 1.22455
AGUS PREFETCH L1 MISS: 0
LLC WRITEBACK ACCESS:     670367  HIT:     664104  MISS:       6263  HIT %:    99.0657  MISS %:   0.934264   MPKI: 0.031315
LLC LOAD TRANSLATION ACCESS:      68027  HIT:      50938  MISS:      17089  HIT %:    74.8791  MISS %:    25.1209   MPKI: 0.085445
LLC PREFETCH  REQUESTED:          0  ISSUED:          0  USEFUL:       8241  USELESS:     236444
LLC USEFUL LOAD PREFETCHES:       8241 PREFETCH ISSUED TO LOWER LEVEL:     244911  ACCURACY: 3.3649
LLC TIMELY PREFETCHES:       8241 LATE PREFETCHES: 0 DROPPED PREFETCHES: 0
LLC PREFETCHES SAME FILL-ORIGIN LEVEL: 0 DIFFERENT FILL-ORIGIN LEVEL: 0
LLC AVERAGE MISS LATENCY: 218.807 cycles
LLC RQ	ACCESS:    2106451	FORWARD:          0	MERGED:          0	TO_CACHE:    2106439
LLC WQ	ACCESS:     670367	FORWARD:         12	MERGED:          0	TO_CACHE:     670367
LLC PQ	ACCESS:     511805	FORWARD:          0	MERGED:          0	TO_CACHE:     511805

LLC Dense regions hint to LLC: 0

RAW hits: 2346325
Loads Generated: 53770025
Loads sent to L1D: 51423700
Stores Generated: 22494708
Stores sent to L1D: 22494716
Major fault: 0 Minor fault: 5602
Allocated PAGES: 5602
[Bingo] PHT Access: 400914
[Bingo] PHT Hit PC+Addr: 256254
[Bingo] PHT Hit PC+Offs: 32100
[Bingo] PHT Miss: 112560
[Bingo] Prefetch PC+Addr: 0
[Bingo] Prefetch PC+Offs: 0
[Bingo] Useful PC+Addr: 0
[Bingo] Useful PC+Offs: 0
[Bingo] Useless PC+Addr: 0
[Bingo] Useless PC+Offs: 0
[Bingo] L1 Prefetch per Region: 0
[Bingo] L2 Prefetch per Region: 5.22221
[Bingo] L3 Prefetch per Region: 0
[Bingo] No Prefetch per Region: 26.7778
[Bingo] Number of Voters Mean: 6.29829
[Bingo] Number of Voters SD: 6.85742
PHT read accesses: 2497415
PHT write accesses: 212009
AT read accesses: 1253675
AT write accesses: 1367295
FT read accesses: 693282
FT write accesses: 400914
PS read accesses: 594307
PS write accesses: 288354
PHT tag read accesses: 6774935
PHT tag write accesses: 468263
AT tag read accesses: 77492883
AT tag write accesses: 1465684
FT tag read accesses: 67284729
FT tag write accesses: 872014
PS tag read accesses: 36352076
PS tag write accesses: 881042

DRAM Statistics
 CHANNEL 0
 RQ ROW_BUFFER_HIT:     262273  ROW_BUFFER_MISS:     420658
 DBUS_CONGESTED:        314
 WQ ROW_BUFFER_HIT:      46203  ROW_BUFFER_MISS:     335382  FULL:          0

 AVG_CONGESTED_CYCLE: 5
 All warmup complete: 2
Channel 0 Bank busy for read cycles: 0
Channel 0 Bank busy for write cycles: 0
Channel 0
Rank 0
0banks busy for read cycles: 385130921
0banks busy for write cycles: 99101
1banks busy for read cycles: 20611179
1banks busy for write cycles: 12351350
2banks busy for read cycles: 5727770
2banks busy for write cycles: 4287488
3banks busy for read cycles: 1887208
3banks busy for write cycles: 1796510
4banks busy for read cycles: 1176335
4banks busy for write cycles: 1161995
5banks busy for read cycles: 812939
5banks busy for write cycles: 884974
6banks busy for read cycles: 745045
6banks busy for write cycles: 740347
7banks busy for read cycles: 863362
7banks busy for write cycles: 793499
8banks busy for read cycles: 2482980
8banks busy for write cycles: 2650759

CPU 0 Branch Prediction Accuracy: 99.5281% MPKI: 0.817655 Average ROB Occupancy at Mispredict: 19.519
Branch types
NOT_BRANCH: 165342377 82.6712%
BRANCH_DIRECT_JUMP: 2968490 1.48424%
BRANCH_INDIRECT: 12251247 6.12562%
BRANCH_CONDITIONAL: 12071175 6.03559%
BRANCH_DIRECT_CALL: 2719215 1.35961%
BRANCH_INDIRECT_CALL: 964038 0.482019%
BRANCH_RETURN: 3683174 1.84159%
BRANCH_OTHER: 0 0%

DRAM PAGES: 1048576
Allocated PAGES: 5602
