
*** ChampSim Multicore Out-of-Order Simulator ***

Warmup Instructions: 50000000
Simulation Instructions: 200000000
Number of CPUs: 1
LLC sets: 2048
LLC ways: 16
Off-chip DRAM Size: 4096 MB Channels: 1 Width: 64-bit Data Rate: 6400 MT/s
CPU 0 runs traces/spec2k17/srv_68.champsimtrace.xz
.xz
BTB has LRU replacement policy
ITLB has LRU replacement policy
DTLB has LRU replacement policy
STLB has LRU replacement policy
L1I has LRU replacement policy
L1D has LRU replacement policy
Bingo PHT WAYS: 16 and PHT_SIZE: 16384
Initialize SRRIP state for L2C
Initialize DRRIP state for LLC
Heartbeat CPU 0 instructions: 10000002 cycles: 2769117 heartbeat IPC: 3.61126 cumulative IPC: 3.61126 (Simulation time: 0 hr 0 min 37 sec) 
Heartbeat CPU 0 instructions: 20000003 cycles: 5534861 heartbeat IPC: 3.61566 cumulative IPC: 3.61346 (Simulation time: 0 hr 1 min 12 sec) 
Heartbeat CPU 0 instructions: 30000003 cycles: 8301392 heartbeat IPC: 3.61463 cumulative IPC: 3.61385 (Simulation time: 0 hr 1 min 46 sec) 
*** Reached end of trace for Core: 0 Repeating trace: traces/spec2k17/srv_68.champsimtrace.xz
Heartbeat CPU 0 instructions: 40000001 cycles: 11063867 heartbeat IPC: 3.61994 cumulative IPC: 3.61537 (Simulation time: 0 hr 2 min 21 sec) 
Heartbeat CPU 0 instructions: 50000000 cycles: 13828715 heartbeat IPC: 3.61683 cumulative IPC: 3.61566 (Simulation time: 0 hr 2 min 56 sec) 

Warmup complete CPU 0 instructions: 50000004 cycles: 13828716 (Simulation time: 0 hr 2 min 56 sec) 

Heartbeat CPU 0 instructions: 60000001 cycles: 35970310 heartbeat IPC: 0.451639 cumulative IPC: 0.451639 (Simulation time: 0 hr 3 min 47 sec) 
*** Reached end of trace for Core: 0 Repeating trace: traces/spec2k17/srv_68.champsimtrace.xz
Heartbeat CPU 0 instructions: 70000003 cycles: 57422084 heartbeat IPC: 0.466162 cumulative IPC: 0.458785 (Simulation time: 0 hr 4 min 40 sec) 
Heartbeat CPU 0 instructions: 80000001 cycles: 79109450 heartbeat IPC: 0.461098 cumulative IPC: 0.459554 (Simulation time: 0 hr 5 min 31 sec) 
Heartbeat CPU 0 instructions: 90000000 cycles: 101400687 heartbeat IPC: 0.448607 cumulative IPC: 0.456767 (Simulation time: 0 hr 6 min 26 sec) 
*** Reached end of trace for Core: 0 Repeating trace: traces/spec2k17/srv_68.champsimtrace.xz
Heartbeat CPU 0 instructions: 100000000 cycles: 122405854 heartbeat IPC: 0.476073 cumulative IPC: 0.460502 (Simulation time: 0 hr 7 min 17 sec) 
Heartbeat CPU 0 instructions: 110000000 cycles: 144380503 heartbeat IPC: 0.45507 cumulative IPC: 0.459588 (Simulation time: 0 hr 8 min 2 sec) 
Heartbeat CPU 0 instructions: 120000001 cycles: 166463593 heartbeat IPC: 0.452835 cumulative IPC: 0.458611 (Simulation time: 0 hr 8 min 53 sec) 
*** Reached end of trace for Core: 0 Repeating trace: traces/spec2k17/srv_68.champsimtrace.xz
Heartbeat CPU 0 instructions: 130000001 cycles: 187365996 heartbeat IPC: 0.478414 cumulative IPC: 0.460996 (Simulation time: 0 hr 9 min 42 sec) 
Heartbeat CPU 0 instructions: 140000002 cycles: 209377556 heartbeat IPC: 0.454307 cumulative IPC: 0.460243 (Simulation time: 0 hr 10 min 28 sec) 
Heartbeat CPU 0 instructions: 150000002 cycles: 231407462 heartbeat IPC: 0.453928 cumulative IPC: 0.459604 (Simulation time: 0 hr 11 min 15 sec) 
*** Reached end of trace for Core: 0 Repeating trace: traces/spec2k17/srv_68.champsimtrace.xz
Heartbeat CPU 0 instructions: 160000001 cycles: 252504222 heartbeat IPC: 0.474006 cumulative IPC: 0.460877 (Simulation time: 0 hr 12 min 7 sec) 
Heartbeat CPU 0 instructions: 170000000 cycles: 274425884 heartbeat IPC: 0.45617 cumulative IPC: 0.460481 (Simulation time: 0 hr 12 min 53 sec) 
Heartbeat CPU 0 instructions: 180000001 cycles: 296507479 heartbeat IPC: 0.452866 cumulative IPC: 0.459886 (Simulation time: 0 hr 13 min 43 sec) 
*** Reached end of trace for Core: 0 Repeating trace: traces/spec2k17/srv_68.champsimtrace.xz
Heartbeat CPU 0 instructions: 190000000 cycles: 317585020 heartbeat IPC: 0.474439 cumulative IPC: 0.460896 (Simulation time: 0 hr 14 min 31 sec) 
Heartbeat CPU 0 instructions: 200000000 cycles: 339256302 heartbeat IPC: 0.46144 cumulative IPC: 0.460932 (Simulation time: 0 hr 15 min 20 sec) 
Heartbeat CPU 0 instructions: 210000000 cycles: 361490133 heartbeat IPC: 0.449765 cumulative IPC: 0.460218 (Simulation time: 0 hr 16 min 12 sec) 
*** Reached end of trace for Core: 0 Repeating trace: traces/spec2k17/srv_68.champsimtrace.xz
Heartbeat CPU 0 instructions: 220000000 cycles: 382399643 heartbeat IPC: 0.478251 cumulative IPC: 0.461241 (Simulation time: 0 hr 16 min 57 sec) 
Heartbeat CPU 0 instructions: 230000001 cycles: 404273253 heartbeat IPC: 0.457172 cumulative IPC: 0.461013 (Simulation time: 0 hr 17 min 38 sec) 
Heartbeat CPU 0 instructions: 240000002 cycles: 426362421 heartbeat IPC: 0.452711 cumulative IPC: 0.460568 (Simulation time: 0 hr 18 min 11 sec) 
*** Reached end of trace for Core: 0 Repeating trace: traces/spec2k17/srv_68.champsimtrace.xz
Heartbeat CPU 0 instructions: 250000002 cycles: 447303482 heartbeat IPC: 0.477531 cumulative IPC: 0.461388 (Simulation time: 0 hr 18 min 43 sec) 
Finished CPU 0 instructions: 200000002 cycles: 433474767 cumulative IPC: 0.461388 (Simulation time: 0 hr 18 min 43 sec) 

ChampSim completed all CPUs

Region of Interest Statistics

CPU 0 cumulative IPC: 0.461388 instructions: 200000002 cycles: 433474767
ITLB TOTAL     ACCESS:   31173029  HIT:   30437317  MISS:     735712  HIT %:    97.6399  MISS %:    2.36009   MPKI: 3.67856
ITLB LOAD TRANSLATION ACCESS:   31173029  HIT:   30437317  MISS:     735712  HIT %:    97.6399  MISS %:    2.36009   MPKI: 3.67856
ITLB PREFETCH  REQUESTED:          0  ISSUED:          0  USEFUL:          0  USELESS:          0
ITLB USEFUL LOAD PREFETCHES:          0 PREFETCH ISSUED TO LOWER LEVEL:          0  ACCURACY: -nan
ITLB TIMELY PREFETCHES:          0 LATE PREFETCHES: 0 DROPPED PREFETCHES: 0
ITLB PREFETCHES SAME FILL-ORIGIN LEVEL: 0 DIFFERENT FILL-ORIGIN LEVEL: 0
ITLB AVERAGE MISS LATENCY: 14.7568 cycles
ITLB RQ	ACCESS:   38044107	FORWARD:          0	MERGED:    6691523	TO_CACHE:   31352584

DTLB TOTAL     ACCESS:   37222500  HIT:   34833400  MISS:    2389100  HIT %:    93.5816  MISS %:    6.41843   MPKI: 11.9455
DTLB LOAD TRANSLATION ACCESS:   37222500  HIT:   34833400  MISS:    2389100  HIT %:    93.5816  MISS %:    6.41843   MPKI: 11.9455
DTLB PREFETCH  REQUESTED:          0  ISSUED:          0  USEFUL:          0  USELESS:          0
DTLB USEFUL LOAD PREFETCHES:          0 PREFETCH ISSUED TO LOWER LEVEL:          0  ACCURACY: -nan
DTLB TIMELY PREFETCHES:          0 LATE PREFETCHES: 0 DROPPED PREFETCHES: 0
DTLB PREFETCHES SAME FILL-ORIGIN LEVEL: 0 DIFFERENT FILL-ORIGIN LEVEL: 0
DTLB AVERAGE MISS LATENCY: 14.2691 cycles
DTLB RQ	ACCESS:   47540419	FORWARD:          0	MERGED:   10176380	TO_CACHE:   37364039

STLB TOTAL     ACCESS:    3124811  HIT:    2746624  MISS:     378187  HIT %:    87.8973  MISS %:    12.1027   MPKI: 1.89093
STLB LOAD TRANSLATION ACCESS:    3124811  HIT:    2746624  MISS:     378187  HIT %:    87.8973  MISS %:    12.1027   MPKI: 1.89093
STLB PREFETCH  REQUESTED:          0  ISSUED:          0  USEFUL:          0  USELESS:          0
STLB USEFUL LOAD PREFETCHES:          0 PREFETCH ISSUED TO LOWER LEVEL:          0  ACCURACY: -nan
STLB TIMELY PREFETCHES:          0 LATE PREFETCHES: 0 DROPPED PREFETCHES: 0
STLB PREFETCHES SAME FILL-ORIGIN LEVEL: 0 DIFFERENT FILL-ORIGIN LEVEL: 0
STLB AVERAGE MISS LATENCY: 44.2776 cycles
STLB RQ	ACCESS:    3124810	FORWARD:          0	MERGED:          0	TO_CACHE:    3124810

STLB Hit, L1D data hit: 0
STLB Hit, L2C data hit: 0
STLB Hit, LLC data hit: 0
STLB Hit, LLC data miss: 0
STLB STLB hints to L2: 0
L1D TOTAL     ACCESS:   47081949  HIT:   44742900  MISS:    2339049  HIT %:     95.032  MISS %:    4.96804   MPKI: 11.6952
L1D LOAD      ACCESS:   27784993  HIT:   25757690  MISS:    2027303  HIT %:    92.7036  MISS %:     7.2964   MPKI: 10.1365
L1D RFO       ACCESS:   19296956  HIT:   18985210  MISS:     311746  HIT %:    98.3845  MISS %:    1.61552   MPKI: 1.55873
L1D PREFETCH  REQUESTED:          0  ISSUED:          0  USEFUL:          0  USELESS:          0
L1D USEFUL LOAD PREFETCHES:          0 PREFETCH ISSUED TO LOWER LEVEL:          0  ACCURACY: -nan
L1D TIMELY PREFETCHES:          0 LATE PREFETCHES: 0 DROPPED PREFETCHES: 0
L1D PREFETCHES SAME FILL-ORIGIN LEVEL: 0 DIFFERENT FILL-ORIGIN LEVEL: 0
L1D AVERAGE MISS LATENCY: 30.7488 cycles
L1D RQ	ACCESS:   42888278	FORWARD:          0	MERGED:   14797587	TO_CACHE:   27859198
L1D WQ	ACCESS:   19969250	FORWARD:     231493	MERGED:     288029	TO_CACHE:   19681221

L1D UNIQUE REGIONS ACCESSED: 0
L1D REGIONS CONFLICTS: 0
L1D Cross Page Prefetch Requests: 0
L1D Same Page Prefetch Requests: 0
L1D ROI Sum of L1D PQ occupancy: 0
L1D PREFETCHES PUSHED FROM L2C: 0
L1I TOTAL     ACCESS:   36402742  HIT:   31632671  MISS:    4770071  HIT %:    86.8964  MISS %:    13.1036   MPKI: 23.8504
L1I LOAD      ACCESS:   36402742  HIT:   31632671  MISS:    4770071  HIT %:    86.8964  MISS %:    13.1036   MPKI: 23.8504
L1I PREFETCH  REQUESTED:          0  ISSUED:          0  USEFUL:          0  USELESS:          0
L1I USEFUL LOAD PREFETCHES:          0 PREFETCH ISSUED TO LOWER LEVEL:          0  ACCURACY: -nan
L1I TIMELY PREFETCHES:          0 LATE PREFETCHES: 0 DROPPED PREFETCHES: 0
L1I PREFETCHES SAME FILL-ORIGIN LEVEL: 0 DIFFERENT FILL-ORIGIN LEVEL: 0
L1I AVERAGE MISS LATENCY: 27.41 cycles
L1I RQ	ACCESS:   56530560	FORWARD:          0	MERGED:   18486453	TO_CACHE:   38044107

BTB TOTAL     ACCESS:   21751551  HIT:   17439369  MISS:    4312182  HIT %:    80.1753  MISS %:    19.8247   MPKI: 21.5609
BTB BRANCH_DIRECT_JUMP	ACCESS:    1714565  HIT:    1465961  MISS:     248604
BTB BRANCH_INDIRECT	ACCESS:    9411853  HIT:    7323167  MISS:    2088686
BTB BRANCH_CONDITIONAL	ACCESS:    4498891  HIT:    4091160  MISS:     407731
BTB BRANCH_DIRECT_CALL	ACCESS:    2431594  HIT:    1968834  MISS:     462760
BTB BRANCH_INDIRECT_CALL	ACCESS:     630486  HIT:     593321  MISS:      37165
BTB BRANCH_RETURN	ACCESS:    3064162  HIT:    1996926  MISS:    1067236
BTB BRANCH_OTHER ACCESS:          0  HIT:          0  MISS:          0

L2C TOTAL     ACCESS:    9887593  HIT:    6403072  MISS:    3484521  HIT %:    64.7587  MISS %:    35.2413   MPKI: 17.4226
L2C LOAD      ACCESS:    6797229  HIT:    4267889  MISS:    2529340  HIT %:    62.7887  MISS %:    37.2113   MPKI: 12.6467
L2C DATA LOAD MPKI: 2.47964
L2C INSTRUCTION LOAD MPKI: 10.1671
L2C RFO       ACCESS:     311671  HIT:     170675  MISS:     140996  HIT %:    54.7613  MISS %:    45.2387   MPKI: 0.70498
L2C PREFETCH  ACCESS:    1326627  HIT:     743362  MISS:     583265  HIT %:     56.034  MISS %:     43.966   MPKI: 2.91632
AGUS PREFETCH L1 MISS: 0
L2C DATA PREFETCH MPKI: 2.91632
L2C INSTRUCTION PREFETCH MPKI: 0
L2C WRITEBACK ACCESS:     963522  HIT:     930137  MISS:      33385  HIT %:    96.5351  MISS %:    3.46489   MPKI: 0.166925
L2C LOAD TRANSLATION ACCESS:     488544  HIT:     291009  MISS:     197535  HIT %:    59.5666  MISS %:    40.4334   MPKI: 0.987675
L2C PREFETCH  REQUESTED:    1372763  ISSUED:    1372763  USEFUL:     453518  USELESS:     129710
L2C USEFUL LOAD PREFETCHES:     453518 PREFETCH ISSUED TO LOWER LEVEL:     594595  ACCURACY: 76.2734
L2C TIMELY PREFETCHES:     453518 LATE PREFETCHES: 11330 DROPPED PREFETCHES: 0
L2C PREFETCHES SAME FILL-ORIGIN LEVEL: 594595 DIFFERENT FILL-ORIGIN LEVEL: 0
L2C AVERAGE MISS LATENCY: 45.7171 cycles
L2C RQ	ACCESS:    7597663	FORWARD:          0	MERGED:          0	TO_CACHE:    7597444
L2C WQ	ACCESS:     963523	FORWARD:        219	MERGED:          0	TO_CACHE:     963523
L2C PQ	ACCESS:    1372763	FORWARD:          0	MERGED:          0	TO_CACHE:    1372763

L2C Instructions Evicting Data 725322
L2C Translations Evicting Data 71349
L2C Data Evicting Data 443687
L2C Instructions Evicting Instructions 1193283
L2C Translations Evicting Instructions 115981
L2C Data Evicting Instructions 705762
L2C Instructions Evicting Translations 114807
L2C Translations Evicting Translations 10205
L2C Data Evicting Translations 70740
L2C Dense regions hint from L2: 0
PSCL5 TOTAL     ACCESS:     378186  HIT:     378186  MISS:          0  HIT %:        100  MISS %:          0   MPKI: 0
PSCL5 LOAD TRANSLATION ACCESS:     378186  HIT:     378186  MISS:          0  HIT %:        100  MISS %:          0   MPKI: 0
PSCL5 PREFETCH  REQUESTED:          0  ISSUED:          0  USEFUL:          0  USELESS:          0
PSCL5 USEFUL LOAD PREFETCHES:          0 PREFETCH ISSUED TO LOWER LEVEL:          0  ACCURACY: -nan
PSCL5 TIMELY PREFETCHES:          0 LATE PREFETCHES: 0 DROPPED PREFETCHES: 0
PSCL5 PREFETCHES SAME FILL-ORIGIN LEVEL: 0 DIFFERENT FILL-ORIGIN LEVEL: 0

PSCL4 TOTAL     ACCESS:     354239  HIT:     353618  MISS:        621  HIT %:    99.8247  MISS %:   0.175305   MPKI: 0.003105
PSCL4 LOAD TRANSLATION ACCESS:     354239  HIT:     353618  MISS:        621  HIT %:    99.8247  MISS %:   0.175305   MPKI: 0.003105
PSCL4 PREFETCH  REQUESTED:          0  ISSUED:          0  USEFUL:          0  USELESS:          0
PSCL4 USEFUL LOAD PREFETCHES:          0 PREFETCH ISSUED TO LOWER LEVEL:          0  ACCURACY: -nan
PSCL4 TIMELY PREFETCHES:          0 LATE PREFETCHES: 0 DROPPED PREFETCHES: 0
PSCL4 PREFETCHES SAME FILL-ORIGIN LEVEL: 0 DIFFERENT FILL-ORIGIN LEVEL: 0

PSCL3 TOTAL     ACCESS:     377108  HIT:     375104  MISS:       2004  HIT %:    99.4686  MISS %:   0.531413   MPKI: 0.01002
PSCL3 LOAD TRANSLATION ACCESS:     377108  HIT:     375104  MISS:       2004  HIT %:    99.4686  MISS %:   0.531413   MPKI: 0.01002
PSCL3 PREFETCH  REQUESTED:          0  ISSUED:          0  USEFUL:          0  USELESS:          0
PSCL3 USEFUL LOAD PREFETCHES:          0 PREFETCH ISSUED TO LOWER LEVEL:          0  ACCURACY: -nan
PSCL3 TIMELY PREFETCHES:          0 LATE PREFETCHES: 0 DROPPED PREFETCHES: 0
PSCL3 PREFETCHES SAME FILL-ORIGIN LEVEL: 0 DIFFERENT FILL-ORIGIN LEVEL: 0

PSCL2 TOTAL     ACCESS:     378187  HIT:     270454  MISS:     107733  HIT %:    71.5133  MISS %:    28.4867   MPKI: 0.538665
PSCL2 LOAD TRANSLATION ACCESS:     378187  HIT:     270454  MISS:     107733  HIT %:    71.5133  MISS %:    28.4867   MPKI: 0.538665
PSCL2 PREFETCH  REQUESTED:          0  ISSUED:          0  USEFUL:          0  USELESS:          0
PSCL2 USEFUL LOAD PREFETCHES:          0 PREFETCH ISSUED TO LOWER LEVEL:          0  ACCURACY: -nan
PSCL2 TIMELY PREFETCHES:          0 LATE PREFETCHES: 0 DROPPED PREFETCHES: 0
PSCL2 PREFETCHES SAME FILL-ORIGIN LEVEL: 0 DIFFERENT FILL-ORIGIN LEVEL: 0

LLC TOTAL     ACCESS:    3909776  HIT:    3581119  MISS:     328657  HIT %:     91.594  MISS %:    8.40603   MPKI: 1.64328
LLC LOAD      ACCESS:    2518083  HIT:    2442751  MISS:      75332  HIT %:    97.0084  MISS %:    2.99164   MPKI: 0.37666
LLC RFO       ACCESS:     140917  HIT:      95675  MISS:      45242  HIT %:    67.8946  MISS %:    32.1054   MPKI: 0.22621
LLC PREFETCH  ACCESS:     594588  HIT:     399832  MISS:     194756  HIT %:    67.2452  MISS %:    32.7548   MPKI: 0.97378
AGUS PREFETCH L1 MISS: 0
LLC WRITEBACK ACCESS:     458653  HIT:     456161  MISS:       2492  HIT %:    99.4567  MISS %:    0.54333   MPKI: 0.01246
LLC LOAD TRANSLATION ACCESS:     197535  HIT:     186700  MISS:      10835  HIT %:    94.5149  MISS %:     5.4851   MPKI: 0.054175
LLC PREFETCH  REQUESTED:          0  ISSUED:          0  USEFUL:       7202  USELESS:     188031
LLC USEFUL LOAD PREFETCHES:       7202 PREFETCH ISSUED TO LOWER LEVEL:     194756  ACCURACY: 3.69796
LLC TIMELY PREFETCHES:       7202 LATE PREFETCHES: 0 DROPPED PREFETCHES: 0
LLC PREFETCHES SAME FILL-ORIGIN LEVEL: 0 DIFFERENT FILL-ORIGIN LEVEL: 0
LLC AVERAGE MISS LATENCY: 170.736 cycles
LLC RQ	ACCESS:    2856541	FORWARD:          0	MERGED:          0	TO_CACHE:    2856535
LLC WQ	ACCESS:     458653	FORWARD:         13	MERGED:          0	TO_CACHE:     458653
LLC PQ	ACCESS:     594595	FORWARD:          0	MERGED:          0	TO_CACHE:     594588

LLC Dense regions hint to LLC: 0

RAW hits: 2865905
Loads Generated: 45754181
Loads sent to L1D: 42888278
Stores Generated: 19969261
Stores sent to L1D: 19969250
Major fault: 0 Minor fault: 5849
Allocated PAGES: 5849
[Bingo] PHT Access: 787187
[Bingo] PHT Hit PC+Addr: 385406
[Bingo] PHT Hit PC+Offs: 41606
[Bingo] PHT Miss: 360175
[Bingo] Prefetch PC+Addr: 0
[Bingo] Prefetch PC+Offs: 0
[Bingo] Useful PC+Addr: 0
[Bingo] Useful PC+Offs: 0
[Bingo] Useless PC+Addr: 0
[Bingo] Useless PC+Offs: 0
[Bingo] L1 Prefetch per Region: 0
[Bingo] L2 Prefetch per Region: 4.24685
[Bingo] L3 Prefetch per Region: 0
[Bingo] No Prefetch per Region: 27.7531
[Bingo] Number of Voters Mean: 4.27825
[Bingo] Number of Voters SD: 5.30332
PHT read accesses: 4903702
PHT write accesses: 319028
AT read accesses: 1313590
AT write accesses: 1554626
FT read accesses: 986378
FT write accesses: 787187
PS read accesses: 865925
PS write accesses: 427012
PHT tag read accesses: 12726224
PHT tag write accesses: 704434
AT tag read accesses: 102910978
AT tag write accesses: 1632616
FT tag read accesses: 101254679
FT tag write accesses: 1450167
PS tag read accesses: 47068450
PS tag write accesses: 1291389

DRAM Statistics
 CHANNEL 0
 RQ ROW_BUFFER_HIT:     108696  ROW_BUFFER_MISS:     217469
 DBUS_CONGESTED:         94
 WQ ROW_BUFFER_HIT:      26714  ROW_BUFFER_MISS:     190739  FULL:          0

 AVG_CONGESTED_CYCLE: 3
 All warmup complete: 2
Channel 0 Bank busy for read cycles: 0
Channel 0 Bank busy for write cycles: 0
Channel 0
Rank 0
0banks busy for read cycles: 403319782
0banks busy for write cycles: 51306
1banks busy for read cycles: 10064609
1banks busy for write cycles: 5918478
2banks busy for read cycles: 2370719
2banks busy for write cycles: 2181533
3banks busy for read cycles: 1073814
3banks busy for write cycles: 1351378
4banks busy for read cycles: 747124
4banks busy for write cycles: 994376
5banks busy for read cycles: 459727
5banks busy for write cycles: 803250
6banks busy for read cycles: 362620
6banks busy for write cycles: 704573
7banks busy for read cycles: 445561
7banks busy for write cycles: 675046
8banks busy for read cycles: 1184456
8banks busy for write cycles: 766416

CPU 0 Branch Prediction Accuracy: 99.7946% MPKI: 0.361505 Average ROB Occupancy at Mispredict: 38.2466
Branch types
NOT_BRANCH: 164798107 82.3991%
BRANCH_DIRECT_JUMP: 1714565 0.857282%
BRANCH_INDIRECT: 9411853 4.70593%
BRANCH_CONDITIONAL: 17949372 8.97469%
BRANCH_DIRECT_CALL: 2431594 1.2158%
BRANCH_INDIRECT_CALL: 630486 0.315243%
BRANCH_RETURN: 3064162 1.53208%
BRANCH_OTHER: 0 0%

DRAM PAGES: 1048576
Allocated PAGES: 5849
