
*** ChampSim Multicore Out-of-Order Simulator ***

Warmup Instructions: 50000000
Simulation Instructions: 200000000
Number of CPUs: 1
LLC sets: 2048
LLC ways: 16
Off-chip DRAM Size: 4096 MB Channels: 1 Width: 64-bit Data Rate: 6400 MT/s
CPU 0 runs traces/spec2k17/srv_35.champsimtrace.xz
.xz
BTB has LRU replacement policy
ITLB has LRU replacement policy
DTLB has LRU replacement policy
STLB has LRU replacement policy
L1I has LRU replacement policy
L1D has LRU replacement policy
Bingo PHT WAYS: 16 and PHT_SIZE: 16384
Initialize SRRIP state for L2C
Initialize DRRIP state for LLC
Heartbeat CPU 0 instructions: 10000001 cycles: 2937903 heartbeat IPC: 3.40379 cumulative IPC: 3.40379 (Simulation time: 0 hr 0 min 39 sec) 
Heartbeat CPU 0 instructions: 20000000 cycles: 5879833 heartbeat IPC: 3.39913 cumulative IPC: 3.40146 (Simulation time: 0 hr 1 min 19 sec) 
Heartbeat CPU 0 instructions: 30000001 cycles: 8823204 heartbeat IPC: 3.39747 cumulative IPC: 3.40013 (Simulation time: 0 hr 1 min 57 sec) 
*** Reached end of trace for Core: 0 Repeating trace: traces/spec2k17/srv_35.champsimtrace.xz
Heartbeat CPU 0 instructions: 40000002 cycles: 11757204 heartbeat IPC: 3.40832 cumulative IPC: 3.40217 (Simulation time: 0 hr 2 min 35 sec) 
Heartbeat CPU 0 instructions: 50000002 cycles: 14698281 heartbeat IPC: 3.40012 cumulative IPC: 3.40176 (Simulation time: 0 hr 3 min 13 sec) 

Warmup complete CPU 0 instructions: 50000002 cycles: 14698281 (Simulation time: 0 hr 3 min 13 sec) 

Heartbeat CPU 0 instructions: 60000002 cycles: 33169129 heartbeat IPC: 0.541394 cumulative IPC: 0.541394 (Simulation time: 0 hr 4 min 19 sec) 
*** Reached end of trace for Core: 0 Repeating trace: traces/spec2k17/srv_35.champsimtrace.xz
Heartbeat CPU 0 instructions: 70000001 cycles: 51234151 heartbeat IPC: 0.553556 cumulative IPC: 0.547407 (Simulation time: 0 hr 5 min 25 sec) 
Heartbeat CPU 0 instructions: 80000002 cycles: 69598094 heartbeat IPC: 0.544545 cumulative IPC: 0.54645 (Simulation time: 0 hr 6 min 33 sec) 
Heartbeat CPU 0 instructions: 90000003 cycles: 88006530 heartbeat IPC: 0.543229 cumulative IPC: 0.545641 (Simulation time: 0 hr 7 min 40 sec) 
*** Reached end of trace for Core: 0 Repeating trace: traces/spec2k17/srv_35.champsimtrace.xz
Heartbeat CPU 0 instructions: 100000001 cycles: 106053279 heartbeat IPC: 0.554116 cumulative IPC: 0.547315 (Simulation time: 0 hr 8 min 47 sec) 
Heartbeat CPU 0 instructions: 110000000 cycles: 124462281 heartbeat IPC: 0.543212 cumulative IPC: 0.546627 (Simulation time: 0 hr 9 min 49 sec) 
Heartbeat CPU 0 instructions: 120000000 cycles: 142799757 heartbeat IPC: 0.545331 cumulative IPC: 0.546442 (Simulation time: 0 hr 10 min 52 sec) 
*** Reached end of trace for Core: 0 Repeating trace: traces/spec2k17/srv_35.champsimtrace.xz
Heartbeat CPU 0 instructions: 130000002 cycles: 160826463 heartbeat IPC: 0.554733 cumulative IPC: 0.547465 (Simulation time: 0 hr 11 min 58 sec) 
Heartbeat CPU 0 instructions: 140000000 cycles: 179203169 heartbeat IPC: 0.544167 cumulative IPC: 0.547096 (Simulation time: 0 hr 13 min 4 sec) 
Heartbeat CPU 0 instructions: 150000002 cycles: 197469297 heartbeat IPC: 0.547462 cumulative IPC: 0.547133 (Simulation time: 0 hr 14 min 9 sec) 
Heartbeat CPU 0 instructions: 160000001 cycles: 215606580 heartbeat IPC: 0.55135 cumulative IPC: 0.547513 (Simulation time: 0 hr 15 min 12 sec) 
*** Reached end of trace for Core: 0 Repeating trace: traces/spec2k17/srv_35.champsimtrace.xz
Heartbeat CPU 0 instructions: 170000000 cycles: 233677777 heartbeat IPC: 0.553367 cumulative IPC: 0.547997 (Simulation time: 0 hr 16 min 18 sec) 
Heartbeat CPU 0 instructions: 180000000 cycles: 252196667 heartbeat IPC: 0.539989 cumulative IPC: 0.547372 (Simulation time: 0 hr 17 min 20 sec) 
Heartbeat CPU 0 instructions: 190000003 cycles: 270418136 heartbeat IPC: 0.548803 cumulative IPC: 0.547474 (Simulation time: 0 hr 18 min 25 sec) 
*** Reached end of trace for Core: 0 Repeating trace: traces/spec2k17/srv_35.champsimtrace.xz
Heartbeat CPU 0 instructions: 200000003 cycles: 288410068 heartbeat IPC: 0.555805 cumulative IPC: 0.548022 (Simulation time: 0 hr 19 min 32 sec) 
Heartbeat CPU 0 instructions: 210000003 cycles: 306743310 heartbeat IPC: 0.545457 cumulative IPC: 0.547861 (Simulation time: 0 hr 20 min 34 sec) 
Heartbeat CPU 0 instructions: 220000000 cycles: 325030611 heartbeat IPC: 0.546827 cumulative IPC: 0.5478 (Simulation time: 0 hr 21 min 40 sec) 
*** Reached end of trace for Core: 0 Repeating trace: traces/spec2k17/srv_35.champsimtrace.xz
Heartbeat CPU 0 instructions: 230000000 cycles: 343092099 heartbeat IPC: 0.553664 cumulative IPC: 0.548122 (Simulation time: 0 hr 22 min 43 sec) 
Heartbeat CPU 0 instructions: 240000001 cycles: 361464384 heartbeat IPC: 0.544298 cumulative IPC: 0.54792 (Simulation time: 0 hr 23 min 45 sec) 
Heartbeat CPU 0 instructions: 250000001 cycles: 379779975 heartbeat IPC: 0.545983 cumulative IPC: 0.547823 (Simulation time: 0 hr 24 min 50 sec) 
Finished CPU 0 instructions: 200000003 cycles: 365081695 cumulative IPC: 0.547823 (Simulation time: 0 hr 24 min 50 sec) 

ChampSim completed all CPUs

Region of Interest Statistics

CPU 0 cumulative IPC: 0.547823 instructions: 200000003 cycles: 365081695
ITLB TOTAL     ACCESS:   33707845  HIT:   32169531  MISS:    1538314  HIT %:    95.4363  MISS %:    4.56367   MPKI: 7.69157
ITLB LOAD TRANSLATION ACCESS:   33707845  HIT:   32169531  MISS:    1538314  HIT %:    95.4363  MISS %:    4.56367   MPKI: 7.69157
ITLB PREFETCH  REQUESTED:          0  ISSUED:          0  USEFUL:          0  USELESS:          0
ITLB USEFUL LOAD PREFETCHES:          0 PREFETCH ISSUED TO LOWER LEVEL:          0  ACCURACY: -nan
ITLB TIMELY PREFETCHES:          0 LATE PREFETCHES: 0 DROPPED PREFETCHES: 0
ITLB PREFETCHES SAME FILL-ORIGIN LEVEL: 0 DIFFERENT FILL-ORIGIN LEVEL: 0
ITLB AVERAGE MISS LATENCY: 9.25651 cycles
ITLB RQ	ACCESS:   40631628	FORWARD:          0	MERGED:    6429150	TO_CACHE:   34202478

DTLB TOTAL     ACCESS:   40486977  HIT:   38956073  MISS:    1530904  HIT %:    96.2188  MISS %:    3.78123   MPKI: 7.65452
DTLB LOAD TRANSLATION ACCESS:   40486977  HIT:   38956073  MISS:    1530904  HIT %:    96.2188  MISS %:    3.78123   MPKI: 7.65452
DTLB PREFETCH  REQUESTED:          0  ISSUED:          0  USEFUL:          0  USELESS:          0
DTLB USEFUL LOAD PREFETCHES:          0 PREFETCH ISSUED TO LOWER LEVEL:          0  ACCURACY: -nan
DTLB TIMELY PREFETCHES:          0 LATE PREFETCHES: 0 DROPPED PREFETCHES: 0
DTLB PREFETCHES SAME FILL-ORIGIN LEVEL: 0 DIFFERENT FILL-ORIGIN LEVEL: 0
DTLB AVERAGE MISS LATENCY: 14.9765 cycles
DTLB RQ	ACCESS:   61538895	FORWARD:          0	MERGED:   20652515	TO_CACHE:   40886380

STLB TOTAL     ACCESS:    3069218  HIT:    2991040  MISS:      78178  HIT %:    97.4528  MISS %:    2.54716   MPKI: 0.39089
STLB LOAD TRANSLATION ACCESS:    3069218  HIT:    2991040  MISS:      78178  HIT %:    97.4528  MISS %:    2.54716   MPKI: 0.39089
STLB PREFETCH  REQUESTED:          0  ISSUED:          0  USEFUL:          0  USELESS:          0
STLB USEFUL LOAD PREFETCHES:          0 PREFETCH ISSUED TO LOWER LEVEL:          0  ACCURACY: -nan
STLB TIMELY PREFETCHES:          0 LATE PREFETCHES: 0 DROPPED PREFETCHES: 0
STLB PREFETCHES SAME FILL-ORIGIN LEVEL: 0 DIFFERENT FILL-ORIGIN LEVEL: 0
STLB AVERAGE MISS LATENCY: 121.755 cycles
STLB RQ	ACCESS:    3069218	FORWARD:          0	MERGED:          0	TO_CACHE:    3069218

STLB Hit, L1D data hit: 0
STLB Hit, L2C data hit: 0
STLB Hit, LLC data hit: 0
STLB Hit, LLC data miss: 0
STLB STLB hints to L2: 0
L1D TOTAL     ACCESS:   48783402  HIT:   42023649  MISS:    6759753  HIT %:    86.1433  MISS %:    13.8567   MPKI: 33.7988
L1D LOAD      ACCESS:   27027024  HIT:   23953641  MISS:    3073383  HIT %:    88.6285  MISS %:    11.3715   MPKI: 15.3669
L1D RFO       ACCESS:   21756378  HIT:   18070008  MISS:    3686370  HIT %:    83.0561  MISS %:    16.9439   MPKI: 18.4318
L1D PREFETCH  REQUESTED:          0  ISSUED:          0  USEFUL:          0  USELESS:          0
L1D USEFUL LOAD PREFETCHES:          0 PREFETCH ISSUED TO LOWER LEVEL:          0  ACCURACY: -nan
L1D TIMELY PREFETCHES:          0 LATE PREFETCHES: 0 DROPPED PREFETCHES: 0
L1D PREFETCHES SAME FILL-ORIGIN LEVEL: 0 DIFFERENT FILL-ORIGIN LEVEL: 0
L1D AVERAGE MISS LATENCY: 134.733 cycles
L1D RQ	ACCESS:   45536831	FORWARD:          0	MERGED:   17686568	TO_CACHE:   27587148
L1D WQ	ACCESS:   34133602	FORWARD:     263115	MERGED:     181855	TO_CACHE:   33951747

L1D UNIQUE REGIONS ACCESSED: 0
L1D REGIONS CONFLICTS: 0
L1D Cross Page Prefetch Requests: 0
L1D Same Page Prefetch Requests: 0
L1D ROI Sum of L1D PQ occupancy: 0
L1D PREFETCHES PUSHED FROM L2C: 0
L1I TOTAL     ACCESS:   37968299  HIT:   28862832  MISS:    9105467  HIT %:    76.0182  MISS %:    23.9818   MPKI: 45.5273
L1I LOAD      ACCESS:   37968299  HIT:   28862832  MISS:    9105467  HIT %:    76.0182  MISS %:    23.9818   MPKI: 45.5273
L1I PREFETCH  REQUESTED:          0  ISSUED:          0  USEFUL:          0  USELESS:          0
L1I USEFUL LOAD PREFETCHES:          0 PREFETCH ISSUED TO LOWER LEVEL:          0  ACCURACY: -nan
L1I TIMELY PREFETCHES:          0 LATE PREFETCHES: 0 DROPPED PREFETCHES: 0
L1I PREFETCHES SAME FILL-ORIGIN LEVEL: 0 DIFFERENT FILL-ORIGIN LEVEL: 0
L1I AVERAGE MISS LATENCY: 17.0343 cycles
L1I RQ	ACCESS:   58770265	FORWARD:          0	MERGED:   18138637	TO_CACHE:   40631628

BTB TOTAL     ACCESS:   25730492  HIT:   24146056  MISS:    1584436  HIT %:    93.8422  MISS %:    6.15781   MPKI: 7.92218
BTB BRANCH_DIRECT_JUMP	ACCESS:    1658706  HIT:    1646127  MISS:      12579
BTB BRANCH_INDIRECT	ACCESS:    9991436  HIT:    9459142  MISS:     532294
BTB BRANCH_CONDITIONAL	ACCESS:    7236367  HIT:    7219065  MISS:      17302
BTB BRANCH_DIRECT_CALL	ACCESS:    2824055  HIT:    2784656  MISS:      39399
BTB BRANCH_INDIRECT_CALL	ACCESS:     597965  HIT:     486107  MISS:     111858
BTB BRANCH_RETURN	ACCESS:    3421963  HIT:    2550959  MISS:     871004
BTB BRANCH_OTHER ACCESS:          0  HIT:          0  MISS:          0

L2C TOTAL     ACCESS:   22667844  HIT:   15715138  MISS:    6952706  HIT %:    69.3279  MISS %:    30.6721   MPKI: 34.7635
L2C LOAD      ACCESS:   12178613  HIT:   10732747  MISS:    1445866  HIT %:    88.1278  MISS %:    11.8722   MPKI: 7.22933
L2C DATA LOAD MPKI: 4.00423
L2C INSTRUCTION LOAD MPKI: 3.2251
L2C RFO       ACCESS:    3686364  HIT:     266726  MISS:    3419638  HIT %:    7.23548  MISS %:    92.7645   MPKI: 17.0982
L2C PREFETCH  ACCESS:    2376337  HIT:     538914  MISS:    1837423  HIT %:    22.6783  MISS %:    77.3217   MPKI: 9.18711
AGUS PREFETCH L1 MISS: 0
L2C DATA PREFETCH MPKI: 9.18711
L2C INSTRUCTION PREFETCH MPKI: 0
L2C WRITEBACK ACCESS:    4335676  HIT:    4130758  MISS:     204918  HIT %:    95.2737  MISS %:    4.72632   MPKI: 1.02459
L2C LOAD TRANSLATION ACCESS:      90854  HIT:      45993  MISS:      44861  HIT %:     50.623  MISS %:     49.377   MPKI: 0.224305
L2C PREFETCH  REQUESTED:    2695147  ISSUED:    2695147  USEFUL:    1617234  USELESS:     220256
L2C USEFUL LOAD PREFETCHES:    1617234 PREFETCH ISSUED TO LOWER LEVEL:    2015571  ACCURACY: 80.237
L2C TIMELY PREFETCHES:    1617234 LATE PREFETCHES: 178147 DROPPED PREFETCHES: 0
L2C PREFETCHES SAME FILL-ORIGIN LEVEL: 2015571 DIFFERENT FILL-ORIGIN LEVEL: 0
L2C AVERAGE MISS LATENCY: 161.216 cycles
L2C RQ	ACCESS:   15956074	FORWARD:          0	MERGED:          0	TO_CACHE:   15955831
L2C WQ	ACCESS:    4335677	FORWARD:        243	MERGED:          0	TO_CACHE:    4335677
L2C PQ	ACCESS:    2695147	FORWARD:          0	MERGED:        220	TO_CACHE:    2694927

L2C Instructions Evicting Data 576629
L2C Translations Evicting Data 40873
L2C Data Evicting Data 5458756
L2C Instructions Evicting Instructions 64405
L2C Translations Evicting Instructions 3661
L2C Data Evicting Instructions 559520
L2C Instructions Evicting Translations 3986
L2C Translations Evicting Translations 327
L2C Data Evicting Translations 39631
L2C Dense regions hint from L2: 0
PSCL5 TOTAL     ACCESS:      78178  HIT:      78178  MISS:          0  HIT %:        100  MISS %:          0   MPKI: 0
PSCL5 LOAD TRANSLATION ACCESS:      78178  HIT:      78178  MISS:          0  HIT %:        100  MISS %:          0   MPKI: 0
PSCL5 PREFETCH  REQUESTED:          0  ISSUED:          0  USEFUL:          0  USELESS:          0
PSCL5 USEFUL LOAD PREFETCHES:          0 PREFETCH ISSUED TO LOWER LEVEL:          0  ACCURACY: -nan
PSCL5 TIMELY PREFETCHES:          0 LATE PREFETCHES: 0 DROPPED PREFETCHES: 0
PSCL5 PREFETCHES SAME FILL-ORIGIN LEVEL: 0 DIFFERENT FILL-ORIGIN LEVEL: 0

PSCL4 TOTAL     ACCESS:      76477  HIT:      76318  MISS:        159  HIT %:    99.7921  MISS %:   0.207906   MPKI: 0.000795
PSCL4 LOAD TRANSLATION ACCESS:      76477  HIT:      76318  MISS:        159  HIT %:    99.7921  MISS %:   0.207906   MPKI: 0.000795
PSCL4 PREFETCH  REQUESTED:          0  ISSUED:          0  USEFUL:          0  USELESS:          0
PSCL4 USEFUL LOAD PREFETCHES:          0 PREFETCH ISSUED TO LOWER LEVEL:          0  ACCURACY: -nan
PSCL4 TIMELY PREFETCHES:          0 LATE PREFETCHES: 0 DROPPED PREFETCHES: 0
PSCL4 PREFETCHES SAME FILL-ORIGIN LEVEL: 0 DIFFERENT FILL-ORIGIN LEVEL: 0

PSCL3 TOTAL     ACCESS:      70114  HIT:      68908  MISS:       1206  HIT %:    98.2799  MISS %:    1.72006   MPKI: 0.00603
PSCL3 LOAD TRANSLATION ACCESS:      70114  HIT:      68908  MISS:       1206  HIT %:    98.2799  MISS %:    1.72006   MPKI: 0.00603
PSCL3 PREFETCH  REQUESTED:          0  ISSUED:          0  USEFUL:          0  USELESS:          0
PSCL3 USEFUL LOAD PREFETCHES:          0 PREFETCH ISSUED TO LOWER LEVEL:          0  ACCURACY: -nan
PSCL3 TIMELY PREFETCHES:          0 LATE PREFETCHES: 0 DROPPED PREFETCHES: 0
PSCL3 PREFETCHES SAME FILL-ORIGIN LEVEL: 0 DIFFERENT FILL-ORIGIN LEVEL: 0

PSCL2 TOTAL     ACCESS:      78178  HIT:      66867  MISS:      11311  HIT %:    85.5317  MISS %:    14.4683   MPKI: 0.056555
PSCL2 LOAD TRANSLATION ACCESS:      78178  HIT:      66867  MISS:      11311  HIT %:    85.5317  MISS %:    14.4683   MPKI: 0.056555
PSCL2 PREFETCH  REQUESTED:          0  ISSUED:          0  USEFUL:          0  USELESS:          0
PSCL2 USEFUL LOAD PREFETCHES:          0 PREFETCH ISSUED TO LOWER LEVEL:          0  ACCURACY: -nan
PSCL2 TIMELY PREFETCHES:          0 LATE PREFETCHES: 0 DROPPED PREFETCHES: 0
PSCL2 PREFETCHES SAME FILL-ORIGIN LEVEL: 0 DIFFERENT FILL-ORIGIN LEVEL: 0

LLC TOTAL     ACCESS:   10810659  HIT:    4511689  MISS:    6298970  HIT %:    41.7337  MISS %:    58.2663   MPKI: 31.4948
LLC LOAD      ACCESS:    1268087  HIT:    1045921  MISS:     222166  HIT %:    82.4802  MISS %:    17.5198   MPKI: 1.11083
LLC RFO       ACCESS:    3419250  HIT:     897333  MISS:    2521917  HIT %:    26.2436  MISS %:    73.7564   MPKI: 12.6096
LLC PREFETCH  ACCESS:    2015569  HIT:     955560  MISS:    1060009  HIT %:    47.4089  MISS %:    52.5911   MPKI: 5.30004
AGUS PREFETCH L1 MISS: 0
LLC WRITEBACK ACCESS:    4062892  HIT:    1597654  MISS:    2465238  HIT %:    39.3231  MISS %:    60.6769   MPKI: 12.3262
LLC LOAD TRANSLATION ACCESS:      44861  HIT:      15221  MISS:      29640  HIT %:    33.9292  MISS %:    66.0708   MPKI: 0.1482
LLC PREFETCH  REQUESTED:          0  ISSUED:          0  USEFUL:       2875  USELESS:    1057542
LLC USEFUL LOAD PREFETCHES:       2875 PREFETCH ISSUED TO LOWER LEVEL:    1060009  ACCURACY: 0.271224
LLC TIMELY PREFETCHES:       2875 LATE PREFETCHES: 0 DROPPED PREFETCHES: 0
LLC PREFETCHES SAME FILL-ORIGIN LEVEL: 0 DIFFERENT FILL-ORIGIN LEVEL: 0
LLC AVERAGE MISS LATENCY: 147.847 cycles
LLC RQ	ACCESS:    4732218	FORWARD:          0	MERGED:          0	TO_CACHE:    4732198
LLC WQ	ACCESS:    4062893	FORWARD:         22	MERGED:          0	TO_CACHE:    4062893
LLC PQ	ACCESS:    2015571	FORWARD:          0	MERGED:          0	TO_CACHE:    2015569

LLC Dense regions hint to LLC: 0

RAW hits: 2182710
Loads Generated: 47719541
Loads sent to L1D: 45536831
Stores Generated: 34133593
Stores sent to L1D: 34133602
Major fault: 0 Minor fault: 9063
Allocated PAGES: 9063
[Bingo] PHT Access: 415042
[Bingo] PHT Hit PC+Addr: 246696
[Bingo] PHT Hit PC+Offs: 109553
[Bingo] PHT Miss: 58793
[Bingo] Prefetch PC+Addr: 0
[Bingo] Prefetch PC+Offs: 0
[Bingo] Useful PC+Addr: 0
[Bingo] Useful PC+Offs: 0
[Bingo] Useless PC+Addr: 0
[Bingo] Useless PC+Offs: 0
[Bingo] L1 Prefetch per Region: 0
[Bingo] L2 Prefetch per Region: 8.97901
[Bingo] L3 Prefetch per Region: 0
[Bingo] No Prefetch per Region: 23.021
[Bingo] Number of Voters Mean: 11.668
[Bingo] Number of Voters SD: 8.56539
PHT read accesses: 3124201
PHT write accesses: 266944
AT read accesses: 2794576
AT write accesses: 2855455
FT read accesses: 1017896
FT write accesses: 415042
PS read accesses: 902293
PS write accesses: 356249
PHT tag read accesses: 9188807
PHT tag write accesses: 513640
AT tag read accesses: 171495060
AT tag write accesses: 3061522
FT tag read accesses: 138112058
FT tag write accesses: 1096397
PS tag read accesses: 61988849
PS tag write accesses: 1247570

DRAM Statistics
 CHANNEL 0
 RQ ROW_BUFFER_HIT:    2360424  ROW_BUFFER_MISS:    1473048
 DBUS_CONGESTED:       3087
 WQ ROW_BUFFER_HIT:     529456  ROW_BUFFER_MISS:    2088017  FULL:     103376

 AVG_CONGESTED_CYCLE: 4
 All warmup complete: 2
Channel 0 Bank busy for read cycles: 0
Channel 0 Bank busy for write cycles: 0
Channel 0
Rank 0
0banks busy for read cycles: 183841638
0banks busy for write cycles: 228206
1banks busy for read cycles: 24492435
1banks busy for write cycles: 28668032
2banks busy for read cycles: 10586760
2banks busy for write cycles: 12969449
3banks busy for read cycles: 12865288
3banks busy for write cycles: 7106508
4banks busy for read cycles: 3201904
4banks busy for write cycles: 4910464
5banks busy for read cycles: 2398722
5banks busy for write cycles: 3785239
6banks busy for read cycles: 3062898
6banks busy for write cycles: 3486330
7banks busy for read cycles: 5236482
7banks busy for write cycles: 5427933
8banks busy for read cycles: 22831223
8banks busy for write cycles: 29982185

CPU 0 Branch Prediction Accuracy: 99.9446% MPKI: 0.08472 Average ROB Occupancy at Mispredict: 90.3251
Branch types
NOT_BRANCH: 169425254 84.7126%
BRANCH_DIRECT_JUMP: 1658706 0.829353%
BRANCH_INDIRECT: 9991436 4.99572%
BRANCH_CONDITIONAL: 12080659 6.04033%
BRANCH_DIRECT_CALL: 2824055 1.41203%
BRANCH_INDIRECT_CALL: 597965 0.298982%
BRANCH_RETURN: 3421963 1.71098%
BRANCH_OTHER: 0 0%

DRAM PAGES: 1048576
Allocated PAGES: 9063
