
*** ChampSim Multicore Out-of-Order Simulator ***

Warmup Instructions: 50000000
Simulation Instructions: 200000000
Number of CPUs: 1
LLC sets: 2048
LLC ways: 16
Off-chip DRAM Size: 4096 MB Channels: 1 Width: 64-bit Data Rate: 6400 MT/s
CPU 0 runs traces/spec2k17/srv_42.champsimtrace.xz
.xz
BTB has LRU replacement policy
ITLB has LRU replacement policy
DTLB has LRU replacement policy
STLB has LRU replacement policy
L1I has LRU replacement policy
L1D has LRU replacement policy
Bingo PHT WAYS: 16 and PHT_SIZE: 16384
Initialize SRRIP state for L2C
Initialize DRRIP state for LLC
Heartbeat CPU 0 instructions: 10000000 cycles: 2933305 heartbeat IPC: 3.40912 cumulative IPC: 3.40912 (Simulation time: 0 hr 0 min 34 sec) 
Heartbeat CPU 0 instructions: 20000003 cycles: 5860735 heartbeat IPC: 3.41597 cumulative IPC: 3.41254 (Simulation time: 0 hr 1 min 10 sec) 
Heartbeat CPU 0 instructions: 30000003 cycles: 8790537 heartbeat IPC: 3.4132 cumulative IPC: 3.41276 (Simulation time: 0 hr 1 min 45 sec) 
*** Reached end of trace for Core: 0 Repeating trace: traces/spec2k17/srv_42.champsimtrace.xz
Heartbeat CPU 0 instructions: 40000000 cycles: 11718347 heartbeat IPC: 3.41552 cumulative IPC: 3.41345 (Simulation time: 0 hr 2 min 20 sec) 
Heartbeat CPU 0 instructions: 50000002 cycles: 14646009 heartbeat IPC: 3.4157 cumulative IPC: 3.4139 (Simulation time: 0 hr 2 min 54 sec) 

Warmup complete CPU 0 instructions: 50000002 cycles: 14646009 (Simulation time: 0 hr 2 min 54 sec) 

Heartbeat CPU 0 instructions: 60000000 cycles: 44658403 heartbeat IPC: 0.333196 cumulative IPC: 0.333196 (Simulation time: 0 hr 3 min 52 sec) 
*** Reached end of trace for Core: 0 Repeating trace: traces/spec2k17/srv_42.champsimtrace.xz
Heartbeat CPU 0 instructions: 70000001 cycles: 74415814 heartbeat IPC: 0.336051 cumulative IPC: 0.334617 (Simulation time: 0 hr 4 min 51 sec) 
Heartbeat CPU 0 instructions: 80000000 cycles: 104124566 heartbeat IPC: 0.336601 cumulative IPC: 0.335276 (Simulation time: 0 hr 5 min 47 sec) 
Heartbeat CPU 0 instructions: 90000001 cycles: 134126205 heartbeat IPC: 0.333315 cumulative IPC: 0.334783 (Simulation time: 0 hr 6 min 44 sec) 
*** Reached end of trace for Core: 0 Repeating trace: traces/spec2k17/srv_42.champsimtrace.xz
Heartbeat CPU 0 instructions: 100000002 cycles: 163859905 heartbeat IPC: 0.336319 cumulative IPC: 0.335089 (Simulation time: 0 hr 7 min 39 sec) 
Heartbeat CPU 0 instructions: 110000000 cycles: 193589296 heartbeat IPC: 0.336367 cumulative IPC: 0.335302 (Simulation time: 0 hr 8 min 36 sec) 
Heartbeat CPU 0 instructions: 120000000 cycles: 223543187 heartbeat IPC: 0.333846 cumulative IPC: 0.335093 (Simulation time: 0 hr 9 min 35 sec) 
*** Reached end of trace for Core: 0 Repeating trace: traces/spec2k17/srv_42.champsimtrace.xz
Heartbeat CPU 0 instructions: 130000000 cycles: 253184052 heartbeat IPC: 0.337372 cumulative IPC: 0.335376 (Simulation time: 0 hr 10 min 29 sec) 
Heartbeat CPU 0 instructions: 140000001 cycles: 282988171 heartbeat IPC: 0.335524 cumulative IPC: 0.335393 (Simulation time: 0 hr 11 min 23 sec) 
Heartbeat CPU 0 instructions: 150000000 cycles: 312974657 heartbeat IPC: 0.333484 cumulative IPC: 0.335201 (Simulation time: 0 hr 12 min 15 sec) 
*** Reached end of trace for Core: 0 Repeating trace: traces/spec2k17/srv_42.champsimtrace.xz
Heartbeat CPU 0 instructions: 160000002 cycles: 342660258 heartbeat IPC: 0.336864 cumulative IPC: 0.335351 (Simulation time: 0 hr 13 min 14 sec) 
Heartbeat CPU 0 instructions: 170000000 cycles: 372439187 heartbeat IPC: 0.335808 cumulative IPC: 0.335389 (Simulation time: 0 hr 14 min 12 sec) 
Heartbeat CPU 0 instructions: 180000000 cycles: 402303573 heartbeat IPC: 0.334847 cumulative IPC: 0.335348 (Simulation time: 0 hr 15 min 10 sec) 
*** Reached end of trace for Core: 0 Repeating trace: traces/spec2k17/srv_42.champsimtrace.xz
Heartbeat CPU 0 instructions: 190000002 cycles: 431998888 heartbeat IPC: 0.336754 cumulative IPC: 0.335448 (Simulation time: 0 hr 16 min 7 sec) 
Heartbeat CPU 0 instructions: 200000002 cycles: 461767398 heartbeat IPC: 0.335925 cumulative IPC: 0.335479 (Simulation time: 0 hr 17 min 7 sec) 
Heartbeat CPU 0 instructions: 210000002 cycles: 491663062 heartbeat IPC: 0.334497 cumulative IPC: 0.335418 (Simulation time: 0 hr 18 min 7 sec) 
*** Reached end of trace for Core: 0 Repeating trace: traces/spec2k17/srv_42.champsimtrace.xz
Heartbeat CPU 0 instructions: 220000000 cycles: 521366451 heartbeat IPC: 0.336662 cumulative IPC: 0.335491 (Simulation time: 0 hr 19 min 8 sec) 
Heartbeat CPU 0 instructions: 230000001 cycles: 551094438 heartbeat IPC: 0.336383 cumulative IPC: 0.33554 (Simulation time: 0 hr 20 min 4 sec) 
Heartbeat CPU 0 instructions: 240000001 cycles: 580867656 heartbeat IPC: 0.335872 cumulative IPC: 0.335558 (Simulation time: 0 hr 21 min 2 sec) 
*** Reached end of trace for Core: 0 Repeating trace: traces/spec2k17/srv_42.champsimtrace.xz
Heartbeat CPU 0 instructions: 250000002 cycles: 610715414 heartbeat IPC: 0.335034 cumulative IPC: 0.335531 (Simulation time: 0 hr 22 min 0 sec) 
Finished CPU 0 instructions: 200000000 cycles: 596069405 cumulative IPC: 0.335531 (Simulation time: 0 hr 22 min 0 sec) 

ChampSim completed all CPUs

Region of Interest Statistics

CPU 0 cumulative IPC: 0.335531 instructions: 200000000 cycles: 596069405
ITLB TOTAL     ACCESS:   34773688  HIT:   33122910  MISS:    1650778  HIT %:    95.2528  MISS %:     4.7472   MPKI: 8.25389
ITLB LOAD TRANSLATION ACCESS:   34773688  HIT:   33122910  MISS:    1650778  HIT %:    95.2528  MISS %:     4.7472   MPKI: 8.25389
ITLB PREFETCH  REQUESTED:          0  ISSUED:          0  USEFUL:          0  USELESS:          0
ITLB USEFUL LOAD PREFETCHES:          0 PREFETCH ISSUED TO LOWER LEVEL:          0  ACCURACY: -nan
ITLB TIMELY PREFETCHES:          0 LATE PREFETCHES: 0 DROPPED PREFETCHES: 0
ITLB PREFETCHES SAME FILL-ORIGIN LEVEL: 0 DIFFERENT FILL-ORIGIN LEVEL: 0
ITLB AVERAGE MISS LATENCY: 9.68721 cycles
ITLB RQ	ACCESS:   40679040	FORWARD:          0	MERGED:    5413491	TO_CACHE:   35265549

DTLB TOTAL     ACCESS:   46036289  HIT:   44213146  MISS:    1823143  HIT %:    96.0398  MISS %:    3.96023   MPKI: 9.11571
DTLB LOAD TRANSLATION ACCESS:   46036289  HIT:   44213146  MISS:    1823143  HIT %:    96.0398  MISS %:    3.96023   MPKI: 9.11571
DTLB PREFETCH  REQUESTED:          0  ISSUED:          0  USEFUL:          0  USELESS:          0
DTLB USEFUL LOAD PREFETCHES:          0 PREFETCH ISSUED TO LOWER LEVEL:          0  ACCURACY: -nan
DTLB TIMELY PREFETCHES:          0 LATE PREFETCHES: 0 DROPPED PREFETCHES: 0
DTLB PREFETCHES SAME FILL-ORIGIN LEVEL: 0 DIFFERENT FILL-ORIGIN LEVEL: 0
DTLB AVERAGE MISS LATENCY: 12.1268 cycles
DTLB RQ	ACCESS:   61201286	FORWARD:          0	MERGED:   15047198	TO_CACHE:   46154088

STLB TOTAL     ACCESS:    3473921  HIT:    3355135  MISS:     118786  HIT %:    96.5806  MISS %:    3.41936   MPKI: 0.59393
STLB LOAD TRANSLATION ACCESS:    3473921  HIT:    3355135  MISS:     118786  HIT %:    96.5806  MISS %:    3.41936   MPKI: 0.59393
STLB PREFETCH  REQUESTED:          0  ISSUED:          0  USEFUL:          0  USELESS:          0
STLB USEFUL LOAD PREFETCHES:          0 PREFETCH ISSUED TO LOWER LEVEL:          0  ACCURACY: -nan
STLB TIMELY PREFETCHES:          0 LATE PREFETCHES: 0 DROPPED PREFETCHES: 0
STLB PREFETCHES SAME FILL-ORIGIN LEVEL: 0 DIFFERENT FILL-ORIGIN LEVEL: 0
STLB AVERAGE MISS LATENCY: 57.2421 cycles
STLB RQ	ACCESS:    3473921	FORWARD:          0	MERGED:          0	TO_CACHE:    3473921

STLB Hit, L1D data hit: 0
STLB Hit, L2C data hit: 0
STLB Hit, LLC data hit: 0
STLB Hit, LLC data miss: 0
STLB STLB hints to L2: 0
L1D TOTAL     ACCESS:   59121780  HIT:   54603006  MISS:    4518774  HIT %:    92.3568  MISS %:    7.64316   MPKI: 22.5939
L1D LOAD      ACCESS:   35495152  HIT:   32290882  MISS:    3204270  HIT %:    90.9727  MISS %:    9.02735   MPKI: 16.0214
L1D RFO       ACCESS:   23626628  HIT:   22312124  MISS:    1314504  HIT %:    94.4363  MISS %:    5.56365   MPKI: 6.57252
L1D PREFETCH  REQUESTED:          0  ISSUED:          0  USEFUL:          0  USELESS:          0
L1D USEFUL LOAD PREFETCHES:          0 PREFETCH ISSUED TO LOWER LEVEL:          0  ACCURACY: -nan
L1D TIMELY PREFETCHES:          0 LATE PREFETCHES: 0 DROPPED PREFETCHES: 0
L1D PREFETCHES SAME FILL-ORIGIN LEVEL: 0 DIFFERENT FILL-ORIGIN LEVEL: 0
L1D AVERAGE MISS LATENCY: 25.0325 cycles
L1D RQ	ACCESS:   46696582	FORWARD:          0	MERGED:   10881244	TO_CACHE:   35594504
L1D WQ	ACCESS:   25941685	FORWARD:     220834	MERGED:     334903	TO_CACHE:   25606782

L1D UNIQUE REGIONS ACCESSED: 0
L1D REGIONS CONFLICTS: 0
L1D Cross Page Prefetch Requests: 0
L1D Same Page Prefetch Requests: 0
L1D ROI Sum of L1D PQ occupancy: 0
L1D PREFETCHES PUSHED FROM L2C: 0
L1I TOTAL     ACCESS:   39386782  HIT:   30928401  MISS:    8458381  HIT %:    78.5248  MISS %:    21.4752   MPKI: 42.2919
L1I LOAD      ACCESS:   39386782  HIT:   30928401  MISS:    8458381  HIT %:    78.5248  MISS %:    21.4752   MPKI: 42.2919
L1I PREFETCH  REQUESTED:          0  ISSUED:          0  USEFUL:          0  USELESS:          0
L1I USEFUL LOAD PREFETCHES:          0 PREFETCH ISSUED TO LOWER LEVEL:          0  ACCURACY: -nan
L1I TIMELY PREFETCHES:          0 LATE PREFETCHES: 0 DROPPED PREFETCHES: 0
L1I PREFETCHES SAME FILL-ORIGIN LEVEL: 0 DIFFERENT FILL-ORIGIN LEVEL: 0
L1I AVERAGE MISS LATENCY: 20.6143 cycles
L1I RQ	ACCESS:   59991866	FORWARD:          0	MERGED:   19312826	TO_CACHE:   40679040

BTB TOTAL     ACCESS:   29850924  HIT:   19884743  MISS:    9966181  HIT %:    66.6135  MISS %:    33.3865   MPKI: 49.8309
BTB BRANCH_DIRECT_JUMP	ACCESS:    2604773  HIT:    1779545  MISS:     825228
BTB BRANCH_INDIRECT	ACCESS:   12507392  HIT:    8343784  MISS:    4163608
BTB BRANCH_CONDITIONAL	ACCESS:    6652538  HIT:    5757723  MISS:     894815
BTB BRANCH_DIRECT_CALL	ACCESS:    3088472  HIT:    1613786  MISS:    1474686
BTB BRANCH_INDIRECT_CALL	ACCESS:     954646  HIT:     671097  MISS:     283549
BTB BRANCH_RETURN	ACCESS:    4043103  HIT:    1718808  MISS:    2324295
BTB BRANCH_OTHER ACCESS:          0  HIT:          0  MISS:          0

L2C TOTAL     ACCESS:   17511757  HIT:   13825221  MISS:    3686536  HIT %:    78.9482  MISS %:    21.0518   MPKI: 18.4327
L2C LOAD      ACCESS:   11662634  HIT:    9409681  MISS:    2252953  HIT %:    80.6823  MISS %:    19.3177   MPKI: 11.2648
L2C DATA LOAD MPKI: 2.13764
L2C INSTRUCTION LOAD MPKI: 9.12712
L2C RFO       ACCESS:    1314504  HIT:     677618  MISS:     636886  HIT %:    51.5493  MISS %:    48.4507   MPKI: 3.18443
L2C PREFETCH  ACCESS:    2251067  HIT:    1670479  MISS:     580588  HIT %:    74.2083  MISS %:    25.7917   MPKI: 2.90294
AGUS PREFETCH L1 MISS: 0
L2C DATA PREFETCH MPKI: 2.90294
L2C INSTRUCTION PREFETCH MPKI: 0
L2C WRITEBACK ACCESS:    2074656  HIT:    1954535  MISS:     120121  HIT %:    94.2101  MISS %:    5.78992   MPKI: 0.600605
L2C LOAD TRANSLATION ACCESS:     208896  HIT:     112908  MISS:      95988  HIT %:    54.0499  MISS %:    45.9501   MPKI: 0.47994
L2C PREFETCH  REQUESTED:    2297351  ISSUED:    2297351  USEFUL:     419363  USELESS:     161239
L2C USEFUL LOAD PREFETCHES:     419363 PREFETCH ISSUED TO LOWER LEVEL:     590682  ACCURACY: 70.9964
L2C TIMELY PREFETCHES:     419363 LATE PREFETCHES: 10094 DROPPED PREFETCHES: 0
L2C PREFETCHES SAME FILL-ORIGIN LEVEL: 590682 DIFFERENT FILL-ORIGIN LEVEL: 0
L2C AVERAGE MISS LATENCY: 35.1529 cycles
L2C RQ	ACCESS:   13186051	FORWARD:          0	MERGED:          0	TO_CACHE:   13186034
L2C WQ	ACCESS:    2074656	FORWARD:         23	MERGED:          0	TO_CACHE:    2074656
L2C PQ	ACCESS:    2297351	FORWARD:          0	MERGED:          8	TO_CACHE:    2297337

L2C Instructions Evicting Data 711769
L2C Translations Evicting Data 57819
L2C Data Evicting Data 930716
L2C Instructions Evicting Instructions 1078535
L2C Translations Evicting Instructions 34039
L2C Data Evicting Instructions 659954
L2C Instructions Evicting Translations 35121
L2C Translations Evicting Translations 4130
L2C Data Evicting Translations 54332
L2C Dense regions hint from L2: 0
PSCL5 TOTAL     ACCESS:     118786  HIT:     118786  MISS:          0  HIT %:        100  MISS %:          0   MPKI: 0
PSCL5 LOAD TRANSLATION ACCESS:     118786  HIT:     118786  MISS:          0  HIT %:        100  MISS %:          0   MPKI: 0
PSCL5 PREFETCH  REQUESTED:          0  ISSUED:          0  USEFUL:          0  USELESS:          0
PSCL5 USEFUL LOAD PREFETCHES:          0 PREFETCH ISSUED TO LOWER LEVEL:          0  ACCURACY: -nan
PSCL5 TIMELY PREFETCHES:          0 LATE PREFETCHES: 0 DROPPED PREFETCHES: 0
PSCL5 PREFETCHES SAME FILL-ORIGIN LEVEL: 0 DIFFERENT FILL-ORIGIN LEVEL: 0

PSCL4 TOTAL     ACCESS:     113348  HIT:     109924  MISS:       3424  HIT %:    96.9792  MISS %:    3.02079   MPKI: 0.01712
PSCL4 LOAD TRANSLATION ACCESS:     113348  HIT:     109924  MISS:       3424  HIT %:    96.9792  MISS %:    3.02079   MPKI: 0.01712
PSCL4 PREFETCH  REQUESTED:          0  ISSUED:          0  USEFUL:          0  USELESS:          0
PSCL4 USEFUL LOAD PREFETCHES:          0 PREFETCH ISSUED TO LOWER LEVEL:          0  ACCURACY: -nan
PSCL4 TIMELY PREFETCHES:          0 LATE PREFETCHES: 0 DROPPED PREFETCHES: 0
PSCL4 PREFETCHES SAME FILL-ORIGIN LEVEL: 0 DIFFERENT FILL-ORIGIN LEVEL: 0

PSCL3 TOTAL     ACCESS:     112449  HIT:      89074  MISS:      23375  HIT %:    79.2128  MISS %:    20.7872   MPKI: 0.116875
PSCL3 LOAD TRANSLATION ACCESS:     112449  HIT:      89074  MISS:      23375  HIT %:    79.2128  MISS %:    20.7872   MPKI: 0.116875
PSCL3 PREFETCH  REQUESTED:          0  ISSUED:          0  USEFUL:          0  USELESS:          0
PSCL3 USEFUL LOAD PREFETCHES:          0 PREFETCH ISSUED TO LOWER LEVEL:          0  ACCURACY: -nan
PSCL3 TIMELY PREFETCHES:          0 LATE PREFETCHES: 0 DROPPED PREFETCHES: 0
PSCL3 PREFETCHES SAME FILL-ORIGIN LEVEL: 0 DIFFERENT FILL-ORIGIN LEVEL: 0

PSCL2 TOTAL     ACCESS:     118786  HIT:      55475  MISS:      63311  HIT %:    46.7016  MISS %:    53.2984   MPKI: 0.316555
PSCL2 LOAD TRANSLATION ACCESS:     118786  HIT:      55475  MISS:      63311  HIT %:    46.7016  MISS %:    53.2984   MPKI: 0.316555
PSCL2 PREFETCH  REQUESTED:          0  ISSUED:          0  USEFUL:          0  USELESS:          0
PSCL2 USEFUL LOAD PREFETCHES:          0 PREFETCH ISSUED TO LOWER LEVEL:          0  ACCURACY: -nan
PSCL2 TIMELY PREFETCHES:          0 LATE PREFETCHES: 0 DROPPED PREFETCHES: 0
PSCL2 PREFETCHES SAME FILL-ORIGIN LEVEL: 0 DIFFERENT FILL-ORIGIN LEVEL: 0

LLC TOTAL     ACCESS:    4482090  HIT:    4348917  MISS:     133173  HIT %:    97.0288  MISS %:    2.97123   MPKI: 0.665865
LLC LOAD      ACCESS:    2243216  HIT:    2207341  MISS:      35875  HIT %:    98.4007  MISS %:    1.59927   MPKI: 0.179375
LLC RFO       ACCESS:     636506  HIT:     597075  MISS:      39431  HIT %:    93.8051  MISS %:    6.19491   MPKI: 0.197155
LLC PREFETCH  ACCESS:     590680  HIT:     537037  MISS:      53643  HIT %:    90.9184  MISS %:    9.08157   MPKI: 0.268215
AGUS PREFETCH L1 MISS: 0
LLC WRITEBACK ACCESS:     915700  HIT:     915303  MISS:        397  HIT %:    99.9566  MISS %:  0.0433548   MPKI: 0.001985
LLC LOAD TRANSLATION ACCESS:      95988  HIT:      92161  MISS:       3827  HIT %:     96.013  MISS %:    3.98696   MPKI: 0.019135
LLC PREFETCH  REQUESTED:          0  ISSUED:          0  USEFUL:       1844  USELESS:      51274
LLC USEFUL LOAD PREFETCHES:       1844 PREFETCH ISSUED TO LOWER LEVEL:      53643  ACCURACY: 3.43754
LLC TIMELY PREFETCHES:       1844 LATE PREFETCHES: 0 DROPPED PREFETCHES: 0
LLC PREFETCHES SAME FILL-ORIGIN LEVEL: 0 DIFFERENT FILL-ORIGIN LEVEL: 0
LLC AVERAGE MISS LATENCY: 171.716 cycles
LLC RQ	ACCESS:    2975733	FORWARD:          0	MERGED:          0	TO_CACHE:    2975710
LLC WQ	ACCESS:     915700	FORWARD:         25	MERGED:          0	TO_CACHE:     915700
LLC PQ	ACCESS:     590682	FORWARD:          0	MERGED:          0	TO_CACHE:     590680

LLC Dense regions hint to LLC: 0

RAW hits: 3100588
Loads Generated: 49797172
Loads sent to L1D: 46696582
Stores Generated: 25941683
Stores sent to L1D: 25941685
Major fault: 0 Minor fault: 4280
Allocated PAGES: 4280
[Bingo] PHT Access: 963417
[Bingo] PHT Hit PC+Addr: 572004
[Bingo] PHT Hit PC+Offs: 58097
[Bingo] PHT Miss: 333316
[Bingo] Prefetch PC+Addr: 0
[Bingo] Prefetch PC+Offs: 0
[Bingo] Useful PC+Addr: 0
[Bingo] Useful PC+Offs: 0
[Bingo] Useless PC+Addr: 0
[Bingo] Useless PC+Offs: 0
[Bingo] L1 Prefetch per Region: 0
[Bingo] L2 Prefetch per Region: 4.69286
[Bingo] L3 Prefetch per Region: 0
[Bingo] No Prefetch per Region: 27.3071
[Bingo] Number of Voters Mean: 5.37579
[Bingo] Number of Voters SD: 7.03599
PHT read accesses: 3963713
PHT write accesses: 504585
AT read accesses: 2364927
AT write accesses: 2734877
FT read accesses: 1583147
FT write accesses: 963417
PS read accesses: 1283088
PS write accesses: 630101
PHT tag read accesses: 15747056
PHT tag write accesses: 1076589
AT tag read accesses: 133463396
AT tag write accesses: 2869514
FT tag read accesses: 117370732
FT tag write accesses: 2031431
PS tag read accesses: 72057203
PS tag write accesses: 1911338

DRAM Statistics
 CHANNEL 0
 RQ ROW_BUFFER_HIT:      40008  ROW_BUFFER_MISS:      92764
 DBUS_CONGESTED:         92
 WQ ROW_BUFFER_HIT:       4741  ROW_BUFFER_MISS:      64765  FULL:          0

 AVG_CONGESTED_CYCLE: 6
 All warmup complete: 2
Channel 0 Bank busy for read cycles: 0
Channel 0 Bank busy for write cycles: 0
Channel 0
Rank 0
0banks busy for read cycles: 581173753
0banks busy for write cycles: 30347
1banks busy for read cycles: 5539767
1banks busy for write cycles: 3681728
2banks busy for read cycles: 1432585
2banks busy for write cycles: 1119888
3banks busy for read cycles: 874545
3banks busy for write cycles: 484085
4banks busy for read cycles: 427900
4banks busy for write cycles: 266794
5banks busy for read cycles: 212199
5banks busy for write cycles: 160188
6banks busy for read cycles: 111586
6banks busy for write cycles: 100602
7banks busy for read cycles: 124882
7banks busy for write cycles: 62755
8banks busy for read cycles: 78926
8banks busy for write cycles: 186876

CPU 0 Branch Prediction Accuracy: 99.8256% MPKI: 0.309945 Average ROB Occupancy at Mispredict: 33.5967
Branch types
NOT_BRANCH: 164461162 82.2306%
BRANCH_DIRECT_JUMP: 2604773 1.30239%
BRANCH_INDIRECT: 12507392 6.2537%
BRANCH_CONDITIONAL: 12340417 6.17021%
BRANCH_DIRECT_CALL: 3088472 1.54424%
BRANCH_INDIRECT_CALL: 954646 0.477323%
BRANCH_RETURN: 4043103 2.02155%
BRANCH_OTHER: 0 0%

DRAM PAGES: 1048576
Allocated PAGES: 4280
