Initialize SIGNATURE TABLE
ST_SET: 1
ST_WAY: 256
ST_TAG_BIT: 16
ST_TAG_MASK: ffff

Initialize PATTERN TABLE
PT_SET: 512
PT_WAY: 4
SIG_DELTA_BIT: 7
C_SIG_BIT: 4
C_DELTA_BIT: 4

Initialize PREFETCH FILTER
FILTER_SET: 1024

*** ChampSim Multicore Out-of-Order Simulator ***

Warmup Instructions: 50000000
Simulation Instructions: 200000000
Number of CPUs: 1
LLC sets: 2048
LLC ways: 16
Off-chip DRAM Size: 4096 MB Channels: 1 Width: 64-bit Data Rate: 6400 MT/s
CPU 0 runs traces/spec2k17/server_022.champsimtrace.xz
.xz
BTB has LRU replacement policy
ITLB has LRU replacement policy
DTLB has LRU replacement policy
STLB has LRU replacement policy
L1I has LRU replacement policy
L1D has LRU replacement policy
ST_WAYS: 256
PT_SETS: 512
Initialize SRRIP state for L2C
Initialize DRRIP state for LLC
Heartbeat CPU 0 instructions: 10000001 cycles: 2939466 heartbeat IPC: 3.40198 cumulative IPC: 3.40198 (Simulation time: 0 hr 0 min 41 sec) 
Heartbeat CPU 0 instructions: 20000003 cycles: 5882138 heartbeat IPC: 3.39827 cumulative IPC: 3.40012 (Simulation time: 0 hr 1 min 20 sec) 
Heartbeat CPU 0 instructions: 30000000 cycles: 8818833 heartbeat IPC: 3.40519 cumulative IPC: 3.40181 (Simulation time: 0 hr 2 min 2 sec) 
Heartbeat CPU 0 instructions: 40000002 cycles: 11759538 heartbeat IPC: 3.40055 cumulative IPC: 3.40149 (Simulation time: 0 hr 2 min 39 sec) 
Heartbeat CPU 0 instructions: 50000002 cycles: 14699520 heartbeat IPC: 3.40138 cumulative IPC: 3.40147 (Simulation time: 0 hr 3 min 16 sec) 

Warmup complete CPU 0 instructions: 50000002 cycles: 14699520 (Simulation time: 0 hr 3 min 16 sec) 

Heartbeat CPU 0 instructions: 60000002 cycles: 34695285 heartbeat IPC: 0.500106 cumulative IPC: 0.500106 (Simulation time: 0 hr 4 min 24 sec) 
Heartbeat CPU 0 instructions: 70000000 cycles: 54626786 heartbeat IPC: 0.501718 cumulative IPC: 0.500911 (Simulation time: 0 hr 5 min 31 sec) 
Heartbeat CPU 0 instructions: 80000003 cycles: 73711334 heartbeat IPC: 0.523984 cumulative IPC: 0.508373 (Simulation time: 0 hr 6 min 34 sec) 
Heartbeat CPU 0 instructions: 90000002 cycles: 93045209 heartbeat IPC: 0.517227 cumulative IPC: 0.510558 (Simulation time: 0 hr 7 min 40 sec) 
Heartbeat CPU 0 instructions: 100000000 cycles: 112571760 heartbeat IPC: 0.512123 cumulative IPC: 0.51087 (Simulation time: 0 hr 8 min 50 sec) 
*** Reached end of trace for Core: 0 Repeating trace: traces/spec2k17/server_022.champsimtrace.xz
Heartbeat CPU 0 instructions: 110000000 cycles: 131915288 heartbeat IPC: 0.516969 cumulative IPC: 0.511877 (Simulation time: 0 hr 9 min 58 sec) 
Heartbeat CPU 0 instructions: 120000001 cycles: 151210306 heartbeat IPC: 0.518269 cumulative IPC: 0.51278 (Simulation time: 0 hr 10 min 59 sec) 
Heartbeat CPU 0 instructions: 130000000 cycles: 170449610 heartbeat IPC: 0.519769 cumulative IPC: 0.513643 (Simulation time: 0 hr 12 min 6 sec) 
Heartbeat CPU 0 instructions: 140000000 cycles: 189678470 heartbeat IPC: 0.520052 cumulative IPC: 0.514348 (Simulation time: 0 hr 13 min 14 sec) 
Heartbeat CPU 0 instructions: 150000000 cycles: 208962957 heartbeat IPC: 0.518552 cumulative IPC: 0.514765 (Simulation time: 0 hr 14 min 17 sec) 
Heartbeat CPU 0 instructions: 160000001 cycles: 228475196 heartbeat IPC: 0.512499 cumulative IPC: 0.514558 (Simulation time: 0 hr 15 min 22 sec) 
Heartbeat CPU 0 instructions: 170000001 cycles: 247721383 heartbeat IPC: 0.519583 cumulative IPC: 0.514973 (Simulation time: 0 hr 16 min 30 sec) 
Heartbeat CPU 0 instructions: 180000003 cycles: 267033148 heartbeat IPC: 0.517819 cumulative IPC: 0.515191 (Simulation time: 0 hr 17 min 40 sec) 
Heartbeat CPU 0 instructions: 190000003 cycles: 286216614 heartbeat IPC: 0.521282 cumulative IPC: 0.515621 (Simulation time: 0 hr 18 min 45 sec) 
Heartbeat CPU 0 instructions: 200000002 cycles: 305391056 heartbeat IPC: 0.521528 cumulative IPC: 0.516011 (Simulation time: 0 hr 19 min 53 sec) 
Heartbeat CPU 0 instructions: 210000002 cycles: 324665905 heartbeat IPC: 0.518811 cumulative IPC: 0.516185 (Simulation time: 0 hr 21 min 5 sec) 
*** Reached end of trace for Core: 0 Repeating trace: traces/spec2k17/server_022.champsimtrace.xz
Heartbeat CPU 0 instructions: 220000000 cycles: 343904348 heartbeat IPC: 0.519792 cumulative IPC: 0.516396 (Simulation time: 0 hr 22 min 17 sec) 
Heartbeat CPU 0 instructions: 230000003 cycles: 363244202 heartbeat IPC: 0.517067 cumulative IPC: 0.516433 (Simulation time: 0 hr 23 min 25 sec) 
Heartbeat CPU 0 instructions: 240000000 cycles: 382405972 heartbeat IPC: 0.521872 cumulative IPC: 0.516717 (Simulation time: 0 hr 24 min 33 sec) 
Heartbeat CPU 0 instructions: 250000002 cycles: 401602137 heartbeat IPC: 0.520938 cumulative IPC: 0.516926 (Simulation time: 0 hr 25 min 40 sec) 
Finished CPU 0 instructions: 200000000 cycles: 386902617 cumulative IPC: 0.516926 (Simulation time: 0 hr 25 min 40 sec) 

ChampSim completed all CPUs

Region of Interest Statistics

CPU 0 cumulative IPC: 0.516926 instructions: 200000000 cycles: 386902617
ITLB TOTAL     ACCESS:   33735794  HIT:   32193075  MISS:    1542719  HIT %:    95.4271  MISS %:    4.57294   MPKI: 7.71359
ITLB LOAD TRANSLATION ACCESS:   33735794  HIT:   32193075  MISS:    1542719  HIT %:    95.4271  MISS %:    4.57294   MPKI: 7.71359
ITLB PREFETCH  REQUESTED:          0  ISSUED:          0  USEFUL:          0  USELESS:          0
ITLB USEFUL LOAD PREFETCHES:          0 PREFETCH ISSUED TO LOWER LEVEL:          0  ACCURACY: -nan
ITLB TIMELY PREFETCHES:          0 LATE PREFETCHES: 0 DROPPED PREFETCHES: 0
ITLB PREFETCHES SAME FILL-ORIGIN LEVEL: 0 DIFFERENT FILL-ORIGIN LEVEL: 0
ITLB AVERAGE MISS LATENCY: 9.23799 cycles
ITLB RQ	ACCESS:   40663807	FORWARD:          0	MERGED:    6431885	TO_CACHE:   34231922

DTLB TOTAL     ACCESS:   39880090  HIT:   38355704  MISS:    1524386  HIT %:    96.1776  MISS %:    3.82242   MPKI: 7.62193
DTLB LOAD TRANSLATION ACCESS:   39880090  HIT:   38355704  MISS:    1524386  HIT %:    96.1776  MISS %:    3.82242   MPKI: 7.62193
DTLB PREFETCH  REQUESTED:          0  ISSUED:          0  USEFUL:          0  USELESS:          0
DTLB USEFUL LOAD PREFETCHES:          0 PREFETCH ISSUED TO LOWER LEVEL:          0  ACCURACY: -nan
DTLB TIMELY PREFETCHES:          0 LATE PREFETCHES: 0 DROPPED PREFETCHES: 0
DTLB PREFETCHES SAME FILL-ORIGIN LEVEL: 0 DIFFERENT FILL-ORIGIN LEVEL: 0
DTLB AVERAGE MISS LATENCY: 15.876 cycles
DTLB RQ	ACCESS:   61110402	FORWARD:          0	MERGED:   20825332	TO_CACHE:   40285070

STLB TOTAL     ACCESS:    3067105  HIT:    2994085  MISS:      73020  HIT %:    97.6193  MISS %:    2.38075   MPKI: 0.3651
STLB LOAD TRANSLATION ACCESS:    3067105  HIT:    2994085  MISS:      73020  HIT %:    97.6193  MISS %:    2.38075   MPKI: 0.3651
STLB PREFETCH  REQUESTED:          0  ISSUED:          0  USEFUL:          0  USELESS:          0
STLB USEFUL LOAD PREFETCHES:          0 PREFETCH ISSUED TO LOWER LEVEL:          0  ACCURACY: -nan
STLB TIMELY PREFETCHES:          0 LATE PREFETCHES: 0 DROPPED PREFETCHES: 0
STLB PREFETCHES SAME FILL-ORIGIN LEVEL: 0 DIFFERENT FILL-ORIGIN LEVEL: 0
STLB AVERAGE MISS LATENCY: 148.157 cycles
STLB RQ	ACCESS:    3067105	FORWARD:          0	MERGED:          0	TO_CACHE:    3067105

STLB Hit, L1D data hit: 0
STLB Hit, L2C data hit: 0
STLB Hit, LLC data hit: 0
STLB Hit, LLC data miss: 0
STLB STLB hints to L2: 0
L1D TOTAL     ACCESS:   48501914  HIT:   41739575  MISS:    6762339  HIT %:    86.0576  MISS %:    13.9424   MPKI: 33.8117
L1D LOAD      ACCESS:   26589980  HIT:   23529385  MISS:    3060595  HIT %:    88.4897  MISS %:    11.5103   MPKI: 15.303
L1D RFO       ACCESS:   21911934  HIT:   18210190  MISS:    3701744  HIT %:    83.1063  MISS %:    16.8937   MPKI: 18.5087
L1D PREFETCH  REQUESTED:          0  ISSUED:          0  USEFUL:          0  USELESS:          0
L1D USEFUL LOAD PREFETCHES:          0 PREFETCH ISSUED TO LOWER LEVEL:          0  ACCURACY: -nan
L1D TIMELY PREFETCHES:          0 LATE PREFETCHES: 0 DROPPED PREFETCHES: 0
L1D PREFETCHES SAME FILL-ORIGIN LEVEL: 0 DIFFERENT FILL-ORIGIN LEVEL: 0
L1D AVERAGE MISS LATENCY: 170.251 cycles
L1D RQ	ACCESS:   45183778	FORWARD:          0	MERGED:   17816738	TO_CACHE:   27081928
L1D WQ	ACCESS:   34236669	FORWARD:     285112	MERGED:     208195	TO_CACHE:   34028474

L1D UNIQUE REGIONS ACCESSED: 0
L1D REGIONS CONFLICTS: 0
L1D Cross Page Prefetch Requests: 0
L1D Same Page Prefetch Requests: 0
L1D ROI Sum of L1D PQ occupancy: 0
L1D PREFETCHES PUSHED FROM L2C: 0
L1I TOTAL     ACCESS:   37996564  HIT:   28867360  MISS:    9129204  HIT %:    75.9736  MISS %:    24.0264   MPKI: 45.646
L1I LOAD      ACCESS:   37996564  HIT:   28867360  MISS:    9129204  HIT %:    75.9736  MISS %:    24.0264   MPKI: 45.646
L1I PREFETCH  REQUESTED:          0  ISSUED:          0  USEFUL:          0  USELESS:          0
L1I USEFUL LOAD PREFETCHES:          0 PREFETCH ISSUED TO LOWER LEVEL:          0  ACCURACY: -nan
L1I TIMELY PREFETCHES:          0 LATE PREFETCHES: 0 DROPPED PREFETCHES: 0
L1I PREFETCHES SAME FILL-ORIGIN LEVEL: 0 DIFFERENT FILL-ORIGIN LEVEL: 0
L1I AVERAGE MISS LATENCY: 17.0839 cycles
L1I RQ	ACCESS:   58842856	FORWARD:          0	MERGED:   18179049	TO_CACHE:   40663807

BTB TOTAL     ACCESS:   25686189  HIT:   24135279  MISS:    1550910  HIT %:    93.9621  MISS %:    6.03791   MPKI: 7.75455
BTB BRANCH_DIRECT_JUMP	ACCESS:    1661001  HIT:    1650247  MISS:      10754
BTB BRANCH_INDIRECT	ACCESS:    9967569  HIT:    9455075  MISS:     512494
BTB BRANCH_CONDITIONAL	ACCESS:    7219465  HIT:    7204509  MISS:      14956
BTB BRANCH_DIRECT_CALL	ACCESS:    2825890  HIT:    2790312  MISS:      35578
BTB BRANCH_INDIRECT_CALL	ACCESS:     593170  HIT:     481443  MISS:     111727
BTB BRANCH_RETURN	ACCESS:    3419094  HIT:    2553693  MISS:     865401
BTB BRANCH_OTHER ACCESS:          0  HIT:          0  MISS:          0

L2C TOTAL     ACCESS:   21697800  HIT:   15055986  MISS:    6641814  HIT %:    69.3895  MISS %:    30.6105   MPKI: 33.2091
L2C LOAD      ACCESS:   12189626  HIT:    9407469  MISS:    2782157  HIT %:     77.176  MISS %:     22.824   MPKI: 13.9108
L2C DATA LOAD MPKI: 11.0064
L2C INSTRUCTION LOAD MPKI: 2.90437
L2C RFO       ACCESS:    3701736  HIT:     158414  MISS:    3543322  HIT %:    4.27945  MISS %:    95.7205   MPKI: 17.7166
L2C PREFETCH  ACCESS:    1374385  HIT:    1251105  MISS:     123280  HIT %:    91.0302  MISS %:    8.96983   MPKI: 0.6164
AGUS PREFETCH L1 MISS: 0
L2C DATA PREFETCH MPKI: 0.6164
L2C INSTRUCTION PREFETCH MPKI: 0
L2C WRITEBACK ACCESS:    4351073  HIT:    4194150  MISS:     156923  HIT %:    96.3935  MISS %:    3.60654   MPKI: 0.784615
L2C LOAD TRANSLATION ACCESS:      80980  HIT:      44848  MISS:      36132  HIT %:    55.3816  MISS %:    44.6184   MPKI: 0.18066
L2C PREFETCH  REQUESTED:   11087171  ISSUED:   11086649  USEFUL:     108455  USELESS:      14822
L2C USEFUL LOAD PREFETCHES:     108455 PREFETCH ISSUED TO LOWER LEVEL:    5347629  ACCURACY: 2.0281
L2C TIMELY PREFETCHES:     108455 LATE PREFETCHES: 296577 DROPPED PREFETCHES: 0
L2C PREFETCHES SAME FILL-ORIGIN LEVEL: 419857 DIFFERENT FILL-ORIGIN LEVEL: 4927772
L2C AVERAGE MISS LATENCY: 165.044 cycles
L2C RQ	ACCESS:   15972525	FORWARD:          0	MERGED:          0	TO_CACHE:   15972344
L2C WQ	ACCESS:    4351073	FORWARD:        182	MERGED:          0	TO_CACHE:    4351073
L2C PQ	ACCESS:   11086649	FORWARD:          0	MERGED:    3885541	TO_CACHE:    7201107

L2C Instructions Evicting Data 534951
L2C Translations Evicting Data 33017
L2C Data Evicting Data 5315167
L2C Instructions Evicting Instructions 42921
L2C Translations Evicting Instructions 2946
L2C Data Evicting Instructions 520318
L2C Instructions Evicting Translations 3003
L2C Translations Evicting Translations 169
L2C Data Evicting Translations 32399
L2C Dense regions hint from L2: 0
PSCL5 TOTAL     ACCESS:      73020  HIT:      73020  MISS:          0  HIT %:        100  MISS %:          0   MPKI: 0
PSCL5 LOAD TRANSLATION ACCESS:      73020  HIT:      73020  MISS:          0  HIT %:        100  MISS %:          0   MPKI: 0
PSCL5 PREFETCH  REQUESTED:          0  ISSUED:          0  USEFUL:          0  USELESS:          0
PSCL5 USEFUL LOAD PREFETCHES:          0 PREFETCH ISSUED TO LOWER LEVEL:          0  ACCURACY: -nan
PSCL5 TIMELY PREFETCHES:          0 LATE PREFETCHES: 0 DROPPED PREFETCHES: 0
PSCL5 PREFETCHES SAME FILL-ORIGIN LEVEL: 0 DIFFERENT FILL-ORIGIN LEVEL: 0

PSCL4 TOTAL     ACCESS:      64812  HIT:      64731  MISS:         81  HIT %:     99.875  MISS %:   0.124977   MPKI: 0.000405
PSCL4 LOAD TRANSLATION ACCESS:      64812  HIT:      64731  MISS:         81  HIT %:     99.875  MISS %:   0.124977   MPKI: 0.000405
PSCL4 PREFETCH  REQUESTED:          0  ISSUED:          0  USEFUL:          0  USELESS:          0
PSCL4 USEFUL LOAD PREFETCHES:          0 PREFETCH ISSUED TO LOWER LEVEL:          0  ACCURACY: -nan
PSCL4 TIMELY PREFETCHES:          0 LATE PREFETCHES: 0 DROPPED PREFETCHES: 0
PSCL4 PREFETCHES SAME FILL-ORIGIN LEVEL: 0 DIFFERENT FILL-ORIGIN LEVEL: 0

PSCL3 TOTAL     ACCESS:      72996  HIT:      72831  MISS:        165  HIT %:     99.774  MISS %:    0.22604   MPKI: 0.000825
PSCL3 LOAD TRANSLATION ACCESS:      72996  HIT:      72831  MISS:        165  HIT %:     99.774  MISS %:    0.22604   MPKI: 0.000825
PSCL3 PREFETCH  REQUESTED:          0  ISSUED:          0  USEFUL:          0  USELESS:          0
PSCL3 USEFUL LOAD PREFETCHES:          0 PREFETCH ISSUED TO LOWER LEVEL:          0  ACCURACY: -nan
PSCL3 TIMELY PREFETCHES:          0 LATE PREFETCHES: 0 DROPPED PREFETCHES: 0
PSCL3 PREFETCHES SAME FILL-ORIGIN LEVEL: 0 DIFFERENT FILL-ORIGIN LEVEL: 0

PSCL2 TOTAL     ACCESS:      73020  HIT:      65276  MISS:       7744  HIT %:    89.3947  MISS %:    10.6053   MPKI: 0.03872
PSCL2 LOAD TRANSLATION ACCESS:      73020  HIT:      65276  MISS:       7744  HIT %:    89.3947  MISS %:    10.6053   MPKI: 0.03872
PSCL2 PREFETCH  REQUESTED:          0  ISSUED:          0  USEFUL:          0  USELESS:          0
PSCL2 USEFUL LOAD PREFETCHES:          0 PREFETCH ISSUED TO LOWER LEVEL:          0  ACCURACY: -nan
PSCL2 TIMELY PREFETCHES:          0 LATE PREFETCHES: 0 DROPPED PREFETCHES: 0
PSCL2 PREFETCHES SAME FILL-ORIGIN LEVEL: 0 DIFFERENT FILL-ORIGIN LEVEL: 0

LLC TOTAL     ACCESS:   13421193  HIT:    6620049  MISS:    6801144  HIT %:    49.3253  MISS %:    50.6747   MPKI: 34.0057
LLC LOAD      ACCESS:    2485591  HIT:    2000209  MISS:     485382  HIT %:    80.4722  MISS %:    19.5278   MPKI: 2.42691
LLC RFO       ACCESS:    3543290  HIT:     656653  MISS:    2886637  HIT %:    18.5323  MISS %:    81.4677   MPKI: 14.4332
LLC PREFETCH  ACCESS:    3315743  HIT:    2479545  MISS:     836198  HIT %:     74.781  MISS %:     25.219   MPKI: 4.18099
AGUS PREFETCH L1 MISS: 0
LLC WRITEBACK ACCESS:    4040437  HIT:    1478238  MISS:    2562199  HIT %:    36.5861  MISS %:    63.4139   MPKI: 12.811
LLC LOAD TRANSLATION ACCESS:      36132  HIT:       5404  MISS:      30728  HIT %:    14.9563  MISS %:    85.0437   MPKI: 0.15364
LLC PREFETCH  REQUESTED:          0  ISSUED:          0  USEFUL:     354982  USELESS:     483562
LLC USEFUL LOAD PREFETCHES:     354982 PREFETCH ISSUED TO LOWER LEVEL:    1037985  ACCURACY: 34.1991
LLC TIMELY PREFETCHES:     354982 LATE PREFETCHES: 201787 DROPPED PREFETCHES: 0
LLC PREFETCHES SAME FILL-ORIGIN LEVEL: 1024803 DIFFERENT FILL-ORIGIN LEVEL: 0
LLC AVERAGE MISS LATENCY: 157.501 cycles
LLC RQ	ACCESS:    6065034	FORWARD:          0	MERGED:          0	TO_CACHE:    6065013
LLC WQ	ACCESS:    4040437	FORWARD:         21	MERGED:          0	TO_CACHE:    4040437
LLC PQ	ACCESS:    5347629	FORWARD:          0	MERGED:     908589	TO_CACHE:    4439040

LLC Dense regions hint to LLC: 0

RAW hits: 2543308
Loads Generated: 47727087
Loads sent to L1D: 45183778
Stores Generated: 34236662
Stores sent to L1D: 34236669
Major fault: 0 Minor fault: 23678
Allocated PAGES: 23678
 All Calls: 3826722
 Critical Calls: 3826722
------------------
Depth Distribution
------------------
depth 0: 0
depth 1: 3105662
depth 2: 1956030
depth 3: 1649038
depth 4: 1502670
depth 5: 1413241
depth 6: 1337721
depth 7: 1238701
depth 8: 909469
depth 9: 650757
depth 10: 179732
depth 11: 25715
depth 12: 331
depth 13: 0
depth 14: 0
depth 15: 0
depth 16: 0
depth 17: 0
depth 18: 0
depth 19: 0
depth 20: 0
depth 21: 0
depth 22: 0
depth 23: 0
depth 24: 0
depth 25: 0
depth 26: 0
depth 27: 0
depth 28: 0
depth 29: 0
Total: 13969067
-----------------------------
-----------------------------
	Captured at Filter
-----------------------------
depth 0: 0
depth 1: 7644
depth 2: 4589
depth 3: 3315
depth 4: 2963
depth 5: 3294
depth 6: 3971
depth 7: 4492
depth 8: 4064
depth 9: 3310
depth 10: 874
depth 11: 121
depth 12: 0
depth 13: 0
depth 14: 0
depth 15: 0
depth 16: 0
depth 17: 0
depth 18: 0
depth 19: 0
depth 20: 0
depth 21: 0
depth 22: 0
depth 23: 0
depth 24: 0
depth 25: 0
depth 26: 0
depth 27: 0
depth 28: 0
depth 29: 0
-----------------------------
-----------------------------
		Lost at Page
-----------------------------
depth 0: 0
depth 1: 142211
depth 2: 70142
depth 3: 67137
depth 4: 81690
depth 5: 100939
depth 6: 126450
depth 7: 150186
depth 8: 134489
depth 9: 114363
depth 10: 37227
depth 11: 6079
depth 12: 83
depth 13: 0
depth 14: 0
depth 15: 0
depth 16: 0
depth 17: 0
depth 18: 0
depth 19: 0
depth 20: 0
depth 21: 0
depth 22: 0
depth 23: 0
depth 24: 0
depth 25: 0
depth 26: 0
depth 27: 0
depth 28: 0
depth 29: 0
-----------------------------
-----------------------------
	Lost due to PQ Size
-----------------------------
2460
-----------------------------
ST read accesses: 2894064
ST write accesses: 166358
PT read accesses: 81127553
PT write accesses: 4009196
FILTER read accesses: 20820123
FILTER write accesses: 8282865
GHR read accesses: 6430038
GHR write accesses: 821773
GHR counter read accesses: 65610788
GHR counter write accesses: 4695157
ST tag read accesses: 1262828226
ST tag write accesses: 84984287

DRAM Statistics
 CHANNEL 0
 RQ ROW_BUFFER_HIT:    2009666  ROW_BUFFER_MISS:    2228736
 DBUS_CONGESTED:       1768
 WQ ROW_BUFFER_HIT:     650458  ROW_BUFFER_MISS:    2400997  FULL:      49260

 AVG_CONGESTED_CYCLE: 3
 All warmup complete: 2
Channel 0 Bank busy for read cycles: 0
Channel 0 Bank busy for write cycles: 0
Channel 0
Rank 0
0banks busy for read cycles: 148807723
0banks busy for write cycles: 247462
1banks busy for read cycles: 43010132
1banks busy for write cycles: 33075692
2banks busy for read cycles: 17176117
2banks busy for write cycles: 15348561
3banks busy for read cycles: 15289166
3banks busy for write cycles: 8350783
4banks busy for read cycles: 5542607
4banks busy for write cycles: 5342772
5banks busy for read cycles: 4812702
5banks busy for write cycles: 4088700
6banks busy for read cycles: 5411591
6banks busy for write cycles: 3772976
7banks busy for read cycles: 7659576
7banks busy for write cycles: 6504329
8banks busy for read cycles: 24031670
8banks busy for write cycles: 38430059

CPU 0 Branch Prediction Accuracy: 99.9426% MPKI: 0.08767 Average ROB Occupancy at Mispredict: 111.821
Branch types
NOT_BRANCH: 169469640 84.7348%
BRANCH_DIRECT_JUMP: 1661001 0.8305%
BRANCH_INDIRECT: 9967569 4.98378%
BRANCH_CONDITIONAL: 12063601 6.0318%
BRANCH_DIRECT_CALL: 2825890 1.41294%
BRANCH_INDIRECT_CALL: 593170 0.296585%
BRANCH_RETURN: 3419094 1.70955%
BRANCH_OTHER: 0 0%

DRAM PAGES: 1048576
Allocated PAGES: 23678
