Initialize SIGNATURE TABLE
ST_SET: 1
ST_WAY: 256
ST_TAG_BIT: 16
ST_TAG_MASK: ffff

Initialize PATTERN TABLE
PT_SET: 512
PT_WAY: 4
SIG_DELTA_BIT: 7
C_SIG_BIT: 4
C_DELTA_BIT: 4

Initialize PREFETCH FILTER
FILTER_SET: 1024

*** ChampSim Multicore Out-of-Order Simulator ***

Warmup Instructions: 50000000
Simulation Instructions: 200000000
Number of CPUs: 1
LLC sets: 2048
LLC ways: 16
Off-chip DRAM Size: 4096 MB Channels: 1 Width: 64-bit Data Rate: 6400 MT/s
CPU 0 runs traces/spec2k17/srv_33.champsimtrace.xz
.xz
BTB has LRU replacement policy
ITLB has LRU replacement policy
DTLB has LRU replacement policy
STLB has LRU replacement policy
L1I has LRU replacement policy
L1D has LRU replacement policy
ST_WAYS: 256
PT_SETS: 512
Initialize SRRIP state for L2C
Initialize DRRIP state for LLC
Heartbeat CPU 0 instructions: 10000001 cycles: 2939346 heartbeat IPC: 3.40212 cumulative IPC: 3.40212 (Simulation time: 0 hr 0 min 36 sec) 
Heartbeat CPU 0 instructions: 20000003 cycles: 5881934 heartbeat IPC: 3.39837 cumulative IPC: 3.40024 (Simulation time: 0 hr 1 min 12 sec) 
Heartbeat CPU 0 instructions: 30000000 cycles: 8818593 heartbeat IPC: 3.40523 cumulative IPC: 3.4019 (Simulation time: 0 hr 1 min 51 sec) 
*** Reached end of trace for Core: 0 Repeating trace: traces/spec2k17/srv_33.champsimtrace.xz
Heartbeat CPU 0 instructions: 40000003 cycles: 11756039 heartbeat IPC: 3.40432 cumulative IPC: 3.40251 (Simulation time: 0 hr 2 min 28 sec) 
Heartbeat CPU 0 instructions: 50000002 cycles: 14700677 heartbeat IPC: 3.396 cumulative IPC: 3.4012 (Simulation time: 0 hr 3 min 10 sec) 

Warmup complete CPU 0 instructions: 50000002 cycles: 14700677 (Simulation time: 0 hr 3 min 10 sec) 

Heartbeat CPU 0 instructions: 60000000 cycles: 34574065 heartbeat IPC: 0.503185 cumulative IPC: 0.503185 (Simulation time: 0 hr 4 min 19 sec) 
*** Reached end of trace for Core: 0 Repeating trace: traces/spec2k17/srv_33.champsimtrace.xz
Heartbeat CPU 0 instructions: 70000000 cycles: 54351872 heartbeat IPC: 0.505617 cumulative IPC: 0.504398 (Simulation time: 0 hr 5 min 31 sec) 
Heartbeat CPU 0 instructions: 80000003 cycles: 74064053 heartbeat IPC: 0.507301 cumulative IPC: 0.505362 (Simulation time: 0 hr 6 min 42 sec) 
Heartbeat CPU 0 instructions: 90000001 cycles: 93211995 heartbeat IPC: 0.522249 cumulative IPC: 0.509481 (Simulation time: 0 hr 7 min 48 sec) 
*** Reached end of trace for Core: 0 Repeating trace: traces/spec2k17/srv_33.champsimtrace.xz
Heartbeat CPU 0 instructions: 100000000 cycles: 112348178 heartbeat IPC: 0.52257 cumulative IPC: 0.512046 (Simulation time: 0 hr 8 min 57 sec) 
Heartbeat CPU 0 instructions: 110000000 cycles: 131400422 heartbeat IPC: 0.524873 cumulative IPC: 0.51414 (Simulation time: 0 hr 10 min 3 sec) 
Heartbeat CPU 0 instructions: 120000000 cycles: 150539748 heartbeat IPC: 0.522484 cumulative IPC: 0.515316 (Simulation time: 0 hr 11 min 10 sec) 
*** Reached end of trace for Core: 0 Repeating trace: traces/spec2k17/srv_33.champsimtrace.xz
Heartbeat CPU 0 instructions: 130000002 cycles: 169651013 heartbeat IPC: 0.523252 cumulative IPC: 0.516294 (Simulation time: 0 hr 12 min 19 sec) 
Heartbeat CPU 0 instructions: 140000000 cycles: 188750500 heartbeat IPC: 0.523574 cumulative IPC: 0.517093 (Simulation time: 0 hr 13 min 24 sec) 
Heartbeat CPU 0 instructions: 150000001 cycles: 207837634 heartbeat IPC: 0.523913 cumulative IPC: 0.517767 (Simulation time: 0 hr 14 min 31 sec) 
Heartbeat CPU 0 instructions: 160000001 cycles: 226973161 heartbeat IPC: 0.522588 cumulative IPC: 0.518202 (Simulation time: 0 hr 15 min 37 sec) 
*** Reached end of trace for Core: 0 Repeating trace: traces/spec2k17/srv_33.champsimtrace.xz
Heartbeat CPU 0 instructions: 170000001 cycles: 246079322 heartbeat IPC: 0.523391 cumulative IPC: 0.51863 (Simulation time: 0 hr 16 min 45 sec) 
Heartbeat CPU 0 instructions: 180000003 cycles: 265222485 heartbeat IPC: 0.52238 cumulative IPC: 0.518917 (Simulation time: 0 hr 17 min 51 sec) 
Heartbeat CPU 0 instructions: 190000002 cycles: 284348894 heartbeat IPC: 0.522837 cumulative IPC: 0.519195 (Simulation time: 0 hr 18 min 57 sec) 
*** Reached end of trace for Core: 0 Repeating trace: traces/spec2k17/srv_33.champsimtrace.xz
Heartbeat CPU 0 instructions: 200000000 cycles: 303426331 heartbeat IPC: 0.524179 cumulative IPC: 0.519524 (Simulation time: 0 hr 20 min 8 sec) 
Heartbeat CPU 0 instructions: 210000001 cycles: 322574212 heartbeat IPC: 0.522251 cumulative IPC: 0.519694 (Simulation time: 0 hr 21 min 15 sec) 
Heartbeat CPU 0 instructions: 220000000 cycles: 341554307 heartbeat IPC: 0.526868 cumulative IPC: 0.52011 (Simulation time: 0 hr 22 min 22 sec) 
*** Reached end of trace for Core: 0 Repeating trace: traces/spec2k17/srv_33.champsimtrace.xz
Heartbeat CPU 0 instructions: 230000000 cycles: 360652128 heartbeat IPC: 0.52362 cumulative IPC: 0.520304 (Simulation time: 0 hr 23 min 30 sec) 
Heartbeat CPU 0 instructions: 240000001 cycles: 379828578 heartbeat IPC: 0.521473 cumulative IPC: 0.520366 (Simulation time: 0 hr 24 min 36 sec) 
Heartbeat CPU 0 instructions: 250000002 cycles: 398868171 heartbeat IPC: 0.525221 cumulative IPC: 0.520606 (Simulation time: 0 hr 25 min 43 sec) 
Finished CPU 0 instructions: 200000000 cycles: 384167494 cumulative IPC: 0.520606 (Simulation time: 0 hr 25 min 43 sec) 

ChampSim completed all CPUs

Region of Interest Statistics

CPU 0 cumulative IPC: 0.520606 instructions: 200000000 cycles: 384167494
ITLB TOTAL     ACCESS:   33735518  HIT:   32192620  MISS:    1542898  HIT %:    95.4265  MISS %:    4.57351   MPKI: 7.71449
ITLB LOAD TRANSLATION ACCESS:   33735518  HIT:   32192620  MISS:    1542898  HIT %:    95.4265  MISS %:    4.57351   MPKI: 7.71449
ITLB PREFETCH  REQUESTED:          0  ISSUED:          0  USEFUL:          0  USELESS:          0
ITLB USEFUL LOAD PREFETCHES:          0 PREFETCH ISSUED TO LOWER LEVEL:          0  ACCURACY: -nan
ITLB TIMELY PREFETCHES:          0 LATE PREFETCHES: 0 DROPPED PREFETCHES: 0
ITLB PREFETCHES SAME FILL-ORIGIN LEVEL: 0 DIFFERENT FILL-ORIGIN LEVEL: 0
ITLB AVERAGE MISS LATENCY: 9.23718 cycles
ITLB RQ	ACCESS:   40659709	FORWARD:          0	MERGED:    6428148	TO_CACHE:   34231561

DTLB TOTAL     ACCESS:   39872500  HIT:   38355527  MISS:    1516973  HIT %:    96.1954  MISS %:    3.80456   MPKI: 7.58486
DTLB LOAD TRANSLATION ACCESS:   39872500  HIT:   38355527  MISS:    1516973  HIT %:    96.1954  MISS %:    3.80456   MPKI: 7.58486
DTLB PREFETCH  REQUESTED:          0  ISSUED:          0  USEFUL:          0  USELESS:          0
DTLB USEFUL LOAD PREFETCHES:          0 PREFETCH ISSUED TO LOWER LEVEL:          0  ACCURACY: -nan
DTLB TIMELY PREFETCHES:          0 LATE PREFETCHES: 0 DROPPED PREFETCHES: 0
DTLB PREFETCHES SAME FILL-ORIGIN LEVEL: 0 DIFFERENT FILL-ORIGIN LEVEL: 0
DTLB AVERAGE MISS LATENCY: 15.1272 cycles
DTLB RQ	ACCESS:   61102664	FORWARD:          0	MERGED:   20819249	TO_CACHE:   40283415

STLB TOTAL     ACCESS:    3059871  HIT:    2986301  MISS:      73570  HIT %:    97.5957  MISS %:    2.40435   MPKI: 0.36785
STLB LOAD TRANSLATION ACCESS:    3059871  HIT:    2986301  MISS:      73570  HIT %:    97.5957  MISS %:    2.40435   MPKI: 0.36785
STLB PREFETCH  REQUESTED:          0  ISSUED:          0  USEFUL:          0  USELESS:          0
STLB USEFUL LOAD PREFETCHES:          0 PREFETCH ISSUED TO LOWER LEVEL:          0  ACCURACY: -nan
STLB TIMELY PREFETCHES:          0 LATE PREFETCHES: 0 DROPPED PREFETCHES: 0
STLB PREFETCHES SAME FILL-ORIGIN LEVEL: 0 DIFFERENT FILL-ORIGIN LEVEL: 0
STLB AVERAGE MISS LATENCY: 130.972 cycles
STLB RQ	ACCESS:    3059871	FORWARD:          0	MERGED:          0	TO_CACHE:    3059871

STLB Hit, L1D data hit: 0
STLB Hit, L2C data hit: 0
STLB Hit, LLC data hit: 0
STLB Hit, LLC data miss: 0
STLB STLB hints to L2: 0
L1D TOTAL     ACCESS:   48491399  HIT:   41730570  MISS:    6760829  HIT %:    86.0577  MISS %:    13.9423   MPKI: 33.8041
L1D LOAD      ACCESS:   26572591  HIT:   23517212  MISS:    3055379  HIT %:    88.5018  MISS %:    11.4982   MPKI: 15.2769
L1D RFO       ACCESS:   21918808  HIT:   18213358  MISS:    3705450  HIT %:    83.0947  MISS %:    16.9053   MPKI: 18.5272
L1D PREFETCH  REQUESTED:          0  ISSUED:          0  USEFUL:          0  USELESS:          0
L1D USEFUL LOAD PREFETCHES:          0 PREFETCH ISSUED TO LOWER LEVEL:          0  ACCURACY: -nan
L1D TIMELY PREFETCHES:          0 LATE PREFETCHES: 0 DROPPED PREFETCHES: 0
L1D PREFETCHES SAME FILL-ORIGIN LEVEL: 0 DIFFERENT FILL-ORIGIN LEVEL: 0
L1D AVERAGE MISS LATENCY: 171.582 cycles
L1D RQ	ACCESS:   45181839	FORWARD:          0	MERGED:   17834667	TO_CACHE:   27064635
L1D WQ	ACCESS:   34247148	FORWARD:     282537	MERGED:     209119	TO_CACHE:   34038029

L1D UNIQUE REGIONS ACCESSED: 0
L1D REGIONS CONFLICTS: 0
L1D Cross Page Prefetch Requests: 0
L1D Same Page Prefetch Requests: 0
L1D ROI Sum of L1D PQ occupancy: 0
L1D PREFETCHES PUSHED FROM L2C: 0
L1I TOTAL     ACCESS:   37999984  HIT:   28881849  MISS:    9118135  HIT %:    76.0049  MISS %:    23.9951   MPKI: 45.5907
L1I LOAD      ACCESS:   37999984  HIT:   28881849  MISS:    9118135  HIT %:    76.0049  MISS %:    23.9951   MPKI: 45.5907
L1I PREFETCH  REQUESTED:          0  ISSUED:          0  USEFUL:          0  USELESS:          0
L1I USEFUL LOAD PREFETCHES:          0 PREFETCH ISSUED TO LOWER LEVEL:          0  ACCURACY: -nan
L1I TIMELY PREFETCHES:          0 LATE PREFETCHES: 0 DROPPED PREFETCHES: 0
L1I PREFETCHES SAME FILL-ORIGIN LEVEL: 0 DIFFERENT FILL-ORIGIN LEVEL: 0
L1I AVERAGE MISS LATENCY: 16.7236 cycles
L1I RQ	ACCESS:   58855388	FORWARD:          0	MERGED:   18195679	TO_CACHE:   40659709

BTB TOTAL     ACCESS:   25663213  HIT:   24125506  MISS:    1537707  HIT %:    94.0081  MISS %:    5.99187   MPKI: 7.68853
BTB BRANCH_DIRECT_JUMP	ACCESS:    1661208  HIT:    1651586  MISS:       9622
BTB BRANCH_INDIRECT	ACCESS:    9967589  HIT:    9459761  MISS:     507828
BTB BRANCH_CONDITIONAL	ACCESS:    7198622  HIT:    7185146  MISS:      13476
BTB BRANCH_DIRECT_CALL	ACCESS:    2825210  HIT:    2791882  MISS:      33328
BTB BRANCH_INDIRECT_CALL	ACCESS:     592633  HIT:     481147  MISS:     111486
BTB BRANCH_RETURN	ACCESS:    3417951  HIT:    2555984  MISS:     861967
BTB BRANCH_OTHER ACCESS:          0  HIT:          0  MISS:          0

L2C TOTAL     ACCESS:   21681812  HIT:   15070262  MISS:    6611550  HIT %:    69.5065  MISS %:    30.4935   MPKI: 33.0577
L2C LOAD      ACCESS:   12173372  HIT:    9406927  MISS:    2766445  HIT %:    77.2746  MISS %:    22.7254   MPKI: 13.8322
L2C DATA LOAD MPKI: 11.007
L2C INSTRUCTION LOAD MPKI: 2.8252
L2C RFO       ACCESS:    3705450  HIT:     168683  MISS:    3536767  HIT %:    4.55229  MISS %:    95.4477   MPKI: 17.6838
L2C PREFETCH  ACCESS:    1367246  HIT:    1241840  MISS:     125406  HIT %:    90.8278  MISS %:    9.17216   MPKI: 0.62703
AGUS PREFETCH L1 MISS: 0
L2C DATA PREFETCH MPKI: 0.62703
L2C INSTRUCTION PREFETCH MPKI: 0
L2C WRITEBACK ACCESS:    4354102  HIT:    4207586  MISS:     146516  HIT %:     96.635  MISS %:    3.36501   MPKI: 0.73258
L2C LOAD TRANSLATION ACCESS:      81642  HIT:      45226  MISS:      36416  HIT %:    55.3955  MISS %:    44.6045   MPKI: 0.18208
L2C PREFETCH  REQUESTED:   10959699  ISSUED:   10959375  USEFUL:     110326  USELESS:      15085
L2C USEFUL LOAD PREFETCHES:     110326 PREFETCH ISSUED TO LOWER LEVEL:    5232655  ACCURACY: 2.10841
L2C TIMELY PREFETCHES:     110326 LATE PREFETCHES: 294758 DROPPED PREFETCHES: 0
L2C PREFETCHES SAME FILL-ORIGIN LEVEL: 420165 DIFFERENT FILL-ORIGIN LEVEL: 4812490
L2C AVERAGE MISS LATENCY: 166.704 cycles
L2C RQ	ACCESS:   15960620	FORWARD:          0	MERGED:          0	TO_CACHE:   15960479
L2C WQ	ACCESS:    4354102	FORWARD:        141	MERGED:          0	TO_CACHE:    4354102
L2C PQ	ACCESS:   10959375	FORWARD:          0	MERGED:    3877751	TO_CACHE:    7081624

L2C Instructions Evicting Data 516556
L2C Translations Evicting Data 33122
L2C Data Evicting Data 5329302
L2C Instructions Evicting Instructions 45526
L2C Translations Evicting Instructions 3139
L2C Data Evicting Instructions 501525
L2C Instructions Evicting Translations 2958
L2C Translations Evicting Translations 155
L2C Data Evicting Translations 32751
L2C Dense regions hint from L2: 0
PSCL5 TOTAL     ACCESS:      73570  HIT:      73570  MISS:          0  HIT %:        100  MISS %:          0   MPKI: 0
PSCL5 LOAD TRANSLATION ACCESS:      73570  HIT:      73570  MISS:          0  HIT %:        100  MISS %:          0   MPKI: 0
PSCL5 PREFETCH  REQUESTED:          0  ISSUED:          0  USEFUL:          0  USELESS:          0
PSCL5 USEFUL LOAD PREFETCHES:          0 PREFETCH ISSUED TO LOWER LEVEL:          0  ACCURACY: -nan
PSCL5 TIMELY PREFETCHES:          0 LATE PREFETCHES: 0 DROPPED PREFETCHES: 0
PSCL5 PREFETCHES SAME FILL-ORIGIN LEVEL: 0 DIFFERENT FILL-ORIGIN LEVEL: 0

PSCL4 TOTAL     ACCESS:      63820  HIT:      63726  MISS:         94  HIT %:    99.8527  MISS %:   0.147289   MPKI: 0.00047
PSCL4 LOAD TRANSLATION ACCESS:      63820  HIT:      63726  MISS:         94  HIT %:    99.8527  MISS %:   0.147289   MPKI: 0.00047
PSCL4 PREFETCH  REQUESTED:          0  ISSUED:          0  USEFUL:          0  USELESS:          0
PSCL4 USEFUL LOAD PREFETCHES:          0 PREFETCH ISSUED TO LOWER LEVEL:          0  ACCURACY: -nan
PSCL4 TIMELY PREFETCHES:          0 LATE PREFETCHES: 0 DROPPED PREFETCHES: 0
PSCL4 PREFETCHES SAME FILL-ORIGIN LEVEL: 0 DIFFERENT FILL-ORIGIN LEVEL: 0

PSCL3 TOTAL     ACCESS:      73552  HIT:      73367  MISS:        185  HIT %:    99.7485  MISS %:   0.251523   MPKI: 0.000925
PSCL3 LOAD TRANSLATION ACCESS:      73552  HIT:      73367  MISS:        185  HIT %:    99.7485  MISS %:   0.251523   MPKI: 0.000925
PSCL3 PREFETCH  REQUESTED:          0  ISSUED:          0  USEFUL:          0  USELESS:          0
PSCL3 USEFUL LOAD PREFETCHES:          0 PREFETCH ISSUED TO LOWER LEVEL:          0  ACCURACY: -nan
PSCL3 TIMELY PREFETCHES:          0 LATE PREFETCHES: 0 DROPPED PREFETCHES: 0
PSCL3 PREFETCHES SAME FILL-ORIGIN LEVEL: 0 DIFFERENT FILL-ORIGIN LEVEL: 0

PSCL2 TOTAL     ACCESS:      73570  HIT:      65777  MISS:       7793  HIT %:    89.4074  MISS %:    10.5926   MPKI: 0.038965
PSCL2 LOAD TRANSLATION ACCESS:      73570  HIT:      65777  MISS:       7793  HIT %:    89.4074  MISS %:    10.5926   MPKI: 0.038965
PSCL2 PREFETCH  REQUESTED:          0  ISSUED:          0  USEFUL:          0  USELESS:          0
PSCL2 USEFUL LOAD PREFETCHES:          0 PREFETCH ISSUED TO LOWER LEVEL:          0  ACCURACY: -nan
PSCL2 TIMELY PREFETCHES:          0 LATE PREFETCHES: 0 DROPPED PREFETCHES: 0
PSCL2 PREFETCHES SAME FILL-ORIGIN LEVEL: 0 DIFFERENT FILL-ORIGIN LEVEL: 0

LLC TOTAL     ACCESS:   13283290  HIT:    6627375  MISS:    6655915  HIT %:    49.8926  MISS %:    50.1074   MPKI: 33.2796
LLC LOAD      ACCESS:    2471697  HIT:    1993787  MISS:     477910  HIT %:    80.6647  MISS %:    19.3353   MPKI: 2.38955
LLC RFO       ACCESS:    3536737  HIT:     638176  MISS:    2898561  HIT %:    18.0442  MISS %:    81.9558   MPKI: 14.4928
LLC PREFETCH  ACCESS:    3203326  HIT:    2376477  MISS:     826849  HIT %:    74.1878  MISS %:    25.8122   MPKI: 4.13424
AGUS PREFETCH L1 MISS: 0
LLC WRITEBACK ACCESS:    4035114  HIT:    1612315  MISS:    2422799  HIT %:    39.9571  MISS %:    60.0429   MPKI: 12.114
LLC LOAD TRANSLATION ACCESS:      36416  HIT:       6620  MISS:      29796  HIT %:    18.1788  MISS %:    81.8212   MPKI: 0.14898
LLC PREFETCH  REQUESTED:          0  ISSUED:          0  USEFUL:     358534  USELESS:     471045
LLC USEFUL LOAD PREFETCHES:     358534 PREFETCH ISSUED TO LOWER LEVEL:    1033494  ACCURACY: 34.6914
LLC TIMELY PREFETCHES:     358534 LATE PREFETCHES: 206637 DROPPED PREFETCHES: 0
LLC PREFETCHES SAME FILL-ORIGIN LEVEL: 1019614 DIFFERENT FILL-ORIGIN LEVEL: 0
LLC AVERAGE MISS LATENCY: 162.37 cycles
LLC RQ	ACCESS:    6044883	FORWARD:          0	MERGED:          0	TO_CACHE:    6044862
LLC WQ	ACCESS:    4035113	FORWARD:         21	MERGED:          0	TO_CACHE:    4035113
LLC PQ	ACCESS:    5232655	FORWARD:          0	MERGED:     895360	TO_CACHE:    4337295

LLC Dense regions hint to LLC: 0

RAW hits: 2546098
Loads Generated: 47727940
Loads sent to L1D: 45181839
Stores Generated: 34247147
Stores sent to L1D: 34247148
Major fault: 0 Minor fault: 8597
Allocated PAGES: 8597
 All Calls: 3821244
 Critical Calls: 3821244
------------------
Depth Distribution
------------------
depth 0: 0
depth 1: 3024370
depth 2: 1967296
depth 3: 1653827
depth 4: 1503107
depth 5: 1411836
depth 6: 1335919
depth 7: 1234428
depth 8: 902680
depth 9: 636499
depth 10: 162468
depth 11: 19806
depth 12: 78
depth 13: 0
depth 14: 0
depth 15: 0
depth 16: 0
depth 17: 0
depth 18: 0
depth 19: 0
depth 20: 0
depth 21: 0
depth 22: 0
depth 23: 0
depth 24: 0
depth 25: 0
depth 26: 0
depth 27: 0
depth 28: 0
depth 29: 0
Total: 13852314
-----------------------------
-----------------------------
	Captured at Filter
-----------------------------
depth 0: 0
depth 1: 9138
depth 2: 4858
depth 3: 3331
depth 4: 2900
depth 5: 3338
depth 6: 4126
depth 7: 4769
depth 8: 4158
depth 9: 3401
depth 10: 827
depth 11: 88
depth 12: 0
depth 13: 0
depth 14: 0
depth 15: 0
depth 16: 0
depth 17: 0
depth 18: 0
depth 19: 0
depth 20: 0
depth 21: 0
depth 22: 0
depth 23: 0
depth 24: 0
depth 25: 0
depth 26: 0
depth 27: 0
depth 28: 0
depth 29: 0
-----------------------------
-----------------------------
		Lost at Page
-----------------------------
depth 0: 0
depth 1: 140977
depth 2: 70789
depth 3: 67568
depth 4: 81573
depth 5: 100976
depth 6: 126498
depth 7: 150120
depth 8: 133895
depth 9: 112269
depth 10: 33742
depth 11: 4712
depth 12: 36
depth 13: 0
depth 14: 0
depth 15: 0
depth 16: 0
depth 17: 0
depth 18: 0
depth 19: 0
depth 20: 0
depth 21: 0
depth 22: 0
depth 23: 0
depth 24: 0
depth 25: 0
depth 26: 0
depth 27: 0
depth 28: 0
depth 29: 0
-----------------------------
-----------------------------
	Lost due to PQ Size
-----------------------------
2249
-----------------------------
ST read accesses: 2889369
ST write accesses: 165870
PT read accesses: 80338949
PT write accesses: 4005114
FILTER read accesses: 20658798
FILTER write accesses: 8259901
GHR read accesses: 6334973
GHR write accesses: 812862
GHR counter read accesses: 65039170
GHR counter write accesses: 4692360
ST tag read accesses: 1259156088
ST tag write accesses: 84229956

DRAM Statistics
 CHANNEL 0
 RQ ROW_BUFFER_HIT:    2034960  ROW_BUFFER_MISS:    2197732
 DBUS_CONGESTED:       1808
 WQ ROW_BUFFER_HIT:     638125  ROW_BUFFER_MISS:    2428975  FULL:      53482

 AVG_CONGESTED_CYCLE: 3
 All warmup complete: 2
Channel 0 Bank busy for read cycles: 0
Channel 0 Bank busy for write cycles: 0
Channel 0
Rank 0
0banks busy for read cycles: 148524689
0banks busy for write cycles: 247368
1banks busy for read cycles: 42073247
1banks busy for write cycles: 33298373
2banks busy for read cycles: 15747533
2banks busy for write cycles: 15318779
3banks busy for read cycles: 15110416
3banks busy for write cycles: 8167582
4banks busy for read cycles: 5428385
4banks busy for write cycles: 5219033
5banks busy for read cycles: 4703715
5banks busy for write cycles: 3986536
6banks busy for read cycles: 5355288
6banks busy for write cycles: 3598501
7banks busy for read cycles: 7644873
7banks busy for write cycles: 6347254
8banks busy for read cycles: 24354093
8banks busy for write cycles: 39041830

CPU 0 Branch Prediction Accuracy: 99.9491% MPKI: 0.0777 Average ROB Occupancy at Mispredict: 117.175
Branch types
NOT_BRANCH: 169471462 84.7357%
BRANCH_DIRECT_JUMP: 1661208 0.830604%
BRANCH_INDIRECT: 9967589 4.98379%
BRANCH_CONDITIONAL: 12063902 6.03195%
BRANCH_DIRECT_CALL: 2825210 1.41261%
BRANCH_INDIRECT_CALL: 592633 0.296316%
BRANCH_RETURN: 3417951 1.70898%
BRANCH_OTHER: 0 0%

DRAM PAGES: 1048576
Allocated PAGES: 8597
