Initialize SIGNATURE TABLE
ST_SET: 1
ST_WAY: 256
ST_TAG_BIT: 16
ST_TAG_MASK: ffff

Initialize PATTERN TABLE
PT_SET: 512
PT_WAY: 4
SIG_DELTA_BIT: 7
C_SIG_BIT: 4
C_DELTA_BIT: 4

Initialize PREFETCH FILTER
FILTER_SET: 1024

*** ChampSim Multicore Out-of-Order Simulator ***

Warmup Instructions: 50000000
Simulation Instructions: 200000000
Number of CPUs: 1
LLC sets: 2048
LLC ways: 16
Off-chip DRAM Size: 4096 MB Channels: 1 Width: 64-bit Data Rate: 6400 MT/s
CPU 0 runs traces/spec2k17/srv_13.champsimtrace.xz
.xz
BTB has LRU replacement policy
ITLB has LRU replacement policy
DTLB has LRU replacement policy
STLB has LRU replacement policy
L1I has LRU replacement policy
L1D has LRU replacement policy
ST_WAYS: 256
PT_SETS: 512
Initialize SRRIP state for L2C
Initialize DRRIP state for LLC
Heartbeat CPU 0 instructions: 10000002 cycles: 2808322 heartbeat IPC: 3.56085 cumulative IPC: 3.56085 (Simulation time: 0 hr 0 min 33 sec) 
Heartbeat CPU 0 instructions: 20000000 cycles: 5612981 heartbeat IPC: 3.5655 cumulative IPC: 3.56317 (Simulation time: 0 hr 1 min 7 sec) 
Heartbeat CPU 0 instructions: 30000003 cycles: 8420724 heartbeat IPC: 3.56158 cumulative IPC: 3.56264 (Simulation time: 0 hr 1 min 41 sec) 
*** Reached end of trace for Core: 0 Repeating trace: traces/spec2k17/srv_13.champsimtrace.xz
Heartbeat CPU 0 instructions: 40000001 cycles: 11220128 heartbeat IPC: 3.57219 cumulative IPC: 3.56502 (Simulation time: 0 hr 2 min 15 sec) 
Heartbeat CPU 0 instructions: 50000003 cycles: 14025746 heartbeat IPC: 3.56428 cumulative IPC: 3.56487 (Simulation time: 0 hr 2 min 51 sec) 

Warmup complete CPU 0 instructions: 50000003 cycles: 14025746 (Simulation time: 0 hr 2 min 51 sec) 

Heartbeat CPU 0 instructions: 60000000 cycles: 44294867 heartbeat IPC: 0.33037 cumulative IPC: 0.33037 (Simulation time: 0 hr 3 min 50 sec) 
*** Reached end of trace for Core: 0 Repeating trace: traces/spec2k17/srv_13.champsimtrace.xz
Heartbeat CPU 0 instructions: 70000001 cycles: 73311691 heartbeat IPC: 0.344628 cumulative IPC: 0.337348 (Simulation time: 0 hr 4 min 46 sec) 
Heartbeat CPU 0 instructions: 80000003 cycles: 103202045 heartbeat IPC: 0.334556 cumulative IPC: 0.336412 (Simulation time: 0 hr 5 min 39 sec) 
Heartbeat CPU 0 instructions: 90000001 cycles: 133528724 heartbeat IPC: 0.329743 cumulative IPC: 0.33472 (Simulation time: 0 hr 6 min 33 sec) 
*** Reached end of trace for Core: 0 Repeating trace: traces/spec2k17/srv_13.champsimtrace.xz
Heartbeat CPU 0 instructions: 100000000 cycles: 162796168 heartbeat IPC: 0.341677 cumulative IPC: 0.336088 (Simulation time: 0 hr 7 min 27 sec) 
Heartbeat CPU 0 instructions: 110000000 cycles: 192360923 heartbeat IPC: 0.338241 cumulative IPC: 0.336445 (Simulation time: 0 hr 8 min 24 sec) 
Heartbeat CPU 0 instructions: 120000002 cycles: 222740668 heartbeat IPC: 0.329167 cumulative IPC: 0.335386 (Simulation time: 0 hr 9 min 19 sec) 
*** Reached end of trace for Core: 0 Repeating trace: traces/spec2k17/srv_13.champsimtrace.xz
Heartbeat CPU 0 instructions: 130000001 cycles: 251893366 heartbeat IPC: 0.343021 cumulative IPC: 0.336322 (Simulation time: 0 hr 10 min 15 sec) 
Heartbeat CPU 0 instructions: 140000002 cycles: 281635308 heartbeat IPC: 0.336226 cumulative IPC: 0.336311 (Simulation time: 0 hr 11 min 10 sec) 
Heartbeat CPU 0 instructions: 150000002 cycles: 311821345 heartbeat IPC: 0.331279 cumulative IPC: 0.335801 (Simulation time: 0 hr 12 min 6 sec) 
*** Reached end of trace for Core: 0 Repeating trace: traces/spec2k17/srv_13.champsimtrace.xz
Heartbeat CPU 0 instructions: 160000002 cycles: 340953637 heartbeat IPC: 0.343262 cumulative IPC: 0.336466 (Simulation time: 0 hr 13 min 1 sec) 
Heartbeat CPU 0 instructions: 170000000 cycles: 370798437 heartbeat IPC: 0.335067 cumulative IPC: 0.336349 (Simulation time: 0 hr 13 min 55 sec) 
Heartbeat CPU 0 instructions: 180000003 cycles: 400908980 heartbeat IPC: 0.33211 cumulative IPC: 0.336019 (Simulation time: 0 hr 14 min 50 sec) 
*** Reached end of trace for Core: 0 Repeating trace: traces/spec2k17/srv_13.champsimtrace.xz
Heartbeat CPU 0 instructions: 190000000 cycles: 430196144 heartbeat IPC: 0.341446 cumulative IPC: 0.336401 (Simulation time: 0 hr 15 min 46 sec) 
Heartbeat CPU 0 instructions: 200000001 cycles: 459947082 heartbeat IPC: 0.336124 cumulative IPC: 0.336382 (Simulation time: 0 hr 16 min 42 sec) 
Heartbeat CPU 0 instructions: 210000000 cycles: 489793280 heartbeat IPC: 0.335051 cumulative IPC: 0.336299 (Simulation time: 0 hr 17 min 36 sec) 
*** Reached end of trace for Core: 0 Repeating trace: traces/spec2k17/srv_13.champsimtrace.xz
Heartbeat CPU 0 instructions: 220000000 cycles: 519340699 heartbeat IPC: 0.338439 cumulative IPC: 0.336424 (Simulation time: 0 hr 18 min 32 sec) 
Heartbeat CPU 0 instructions: 230000001 cycles: 548940958 heartbeat IPC: 0.337835 cumulative IPC: 0.336502 (Simulation time: 0 hr 19 min 25 sec) 
Heartbeat CPU 0 instructions: 240000000 cycles: 578802369 heartbeat IPC: 0.33488 cumulative IPC: 0.336416 (Simulation time: 0 hr 20 min 21 sec) 
*** Reached end of trace for Core: 0 Repeating trace: traces/spec2k17/srv_13.champsimtrace.xz
Heartbeat CPU 0 instructions: 250000000 cycles: 608695990 heartbeat IPC: 0.33452 cumulative IPC: 0.336321 (Simulation time: 0 hr 21 min 16 sec) 
Finished CPU 0 instructions: 200000003 cycles: 594670246 cumulative IPC: 0.336321 (Simulation time: 0 hr 21 min 16 sec) 

ChampSim completed all CPUs

Region of Interest Statistics

CPU 0 cumulative IPC: 0.336321 instructions: 200000003 cycles: 594670246
ITLB TOTAL     ACCESS:   34413184  HIT:   32575059  MISS:    1838125  HIT %:    94.6587  MISS %:    5.34134   MPKI: 9.19062
ITLB LOAD TRANSLATION ACCESS:   34413184  HIT:   32575059  MISS:    1838125  HIT %:    94.6587  MISS %:    5.34134   MPKI: 9.19062
ITLB PREFETCH  REQUESTED:          0  ISSUED:          0  USEFUL:          0  USELESS:          0
ITLB USEFUL LOAD PREFETCHES:          0 PREFETCH ISSUED TO LOWER LEVEL:          0  ACCURACY: -nan
ITLB TIMELY PREFETCHES:          0 LATE PREFETCHES: 0 DROPPED PREFETCHES: 0
ITLB PREFETCHES SAME FILL-ORIGIN LEVEL: 0 DIFFERENT FILL-ORIGIN LEVEL: 0
ITLB AVERAGE MISS LATENCY: 9.04579 cycles
ITLB RQ	ACCESS:   40214216	FORWARD:          0	MERGED:    5358092	TO_CACHE:   34856124

DTLB TOTAL     ACCESS:   45312405  HIT:   43518800  MISS:    1793605  HIT %:    96.0417  MISS %:    3.95831   MPKI: 8.96802
DTLB LOAD TRANSLATION ACCESS:   45312405  HIT:   43518800  MISS:    1793605  HIT %:    96.0417  MISS %:    3.95831   MPKI: 8.96802
DTLB PREFETCH  REQUESTED:          0  ISSUED:          0  USEFUL:          0  USELESS:          0
DTLB USEFUL LOAD PREFETCHES:          0 PREFETCH ISSUED TO LOWER LEVEL:          0  ACCURACY: -nan
DTLB TIMELY PREFETCHES:          0 LATE PREFETCHES: 0 DROPPED PREFETCHES: 0
DTLB PREFETCHES SAME FILL-ORIGIN LEVEL: 0 DIFFERENT FILL-ORIGIN LEVEL: 0
DTLB AVERAGE MISS LATENCY: 9.22693 cycles
DTLB RQ	ACCESS:   59709123	FORWARD:          0	MERGED:   14330581	TO_CACHE:   45378542

STLB TOTAL     ACCESS:    3631729  HIT:    3622378  MISS:       9351  HIT %:    99.7425  MISS %:   0.257481   MPKI: 0.046755
STLB LOAD TRANSLATION ACCESS:    3631729  HIT:    3622378  MISS:       9351  HIT %:    99.7425  MISS %:   0.257481   MPKI: 0.046755
STLB PREFETCH  REQUESTED:          0  ISSUED:          0  USEFUL:          0  USELESS:          0
STLB USEFUL LOAD PREFETCHES:          0 PREFETCH ISSUED TO LOWER LEVEL:          0  ACCURACY: -nan
STLB TIMELY PREFETCHES:          0 LATE PREFETCHES: 0 DROPPED PREFETCHES: 0
STLB PREFETCHES SAME FILL-ORIGIN LEVEL: 0 DIFFERENT FILL-ORIGIN LEVEL: 0
STLB AVERAGE MISS LATENCY: 49.9426 cycles
STLB RQ	ACCESS:    3631729	FORWARD:          0	MERGED:          0	TO_CACHE:    3631729

STLB Hit, L1D data hit: 0
STLB Hit, L2C data hit: 0
STLB Hit, LLC data hit: 0
STLB Hit, LLC data miss: 0
STLB STLB hints to L2: 0
L1D TOTAL     ACCESS:   57913303  HIT:   54099394  MISS:    3813909  HIT %:    93.4145  MISS %:    6.58555   MPKI: 19.0695
L1D LOAD      ACCESS:   33445642  HIT:   30699958  MISS:    2745684  HIT %:    91.7906  MISS %:    8.20939   MPKI: 13.7284
L1D RFO       ACCESS:   24467661  HIT:   23399436  MISS:    1068225  HIT %:    95.6341  MISS %:    4.36586   MPKI: 5.34112
L1D PREFETCH  REQUESTED:          0  ISSUED:          0  USEFUL:          0  USELESS:          0
L1D USEFUL LOAD PREFETCHES:          0 PREFETCH ISSUED TO LOWER LEVEL:          0  ACCURACY: -nan
L1D TIMELY PREFETCHES:          0 LATE PREFETCHES: 0 DROPPED PREFETCHES: 0
L1D PREFETCHES SAME FILL-ORIGIN LEVEL: 0 DIFFERENT FILL-ORIGIN LEVEL: 0
L1D AVERAGE MISS LATENCY: 22.2952 cycles
L1D RQ	ACCESS:   46953086	FORWARD:          0	MERGED:   13086435	TO_CACHE:   33571116
L1D WQ	ACCESS:   26311887	FORWARD:     295535	MERGED:     173880	TO_CACHE:   26138007

L1D UNIQUE REGIONS ACCESSED: 0
L1D REGIONS CONFLICTS: 0
L1D Cross Page Prefetch Requests: 0
L1D Same Page Prefetch Requests: 0
L1D ROI Sum of L1D PQ occupancy: 0
L1D PREFETCHES PUSHED FROM L2C: 0
L1I TOTAL     ACCESS:   38813737  HIT:   29172898  MISS:    9640839  HIT %:    75.1613  MISS %:    24.8387   MPKI: 48.2042
L1I LOAD      ACCESS:   38813737  HIT:   29172898  MISS:    9640839  HIT %:    75.1613  MISS %:    24.8387   MPKI: 48.2042
L1I PREFETCH  REQUESTED:          0  ISSUED:          0  USEFUL:          0  USELESS:          0
L1I USEFUL LOAD PREFETCHES:          0 PREFETCH ISSUED TO LOWER LEVEL:          0  ACCURACY: -nan
L1I TIMELY PREFETCHES:          0 LATE PREFETCHES: 0 DROPPED PREFETCHES: 0
L1I PREFETCHES SAME FILL-ORIGIN LEVEL: 0 DIFFERENT FILL-ORIGIN LEVEL: 0
L1I AVERAGE MISS LATENCY: 16.511 cycles
L1I RQ	ACCESS:   57776350	FORWARD:          0	MERGED:   17562134	TO_CACHE:   40214216

BTB TOTAL     ACCESS:   30281760  HIT:   18910009  MISS:   11371751  HIT %:    62.4469  MISS %:    37.5531   MPKI: 56.8588
BTB BRANCH_DIRECT_JUMP	ACCESS:    2184471  HIT:    1385849  MISS:     798622
BTB BRANCH_INDIRECT	ACCESS:   11367631  HIT:    7108083  MISS:    4259548
BTB BRANCH_CONDITIONAL	ACCESS:    8713184  HIT:    7563917  MISS:    1149267
BTB BRANCH_DIRECT_CALL	ACCESS:    3386061  HIT:    1522950  MISS:    1863111
BTB BRANCH_INDIRECT_CALL	ACCESS:     622186  HIT:     244573  MISS:     377613
BTB BRANCH_RETURN	ACCESS:    4008227  HIT:    1084637  MISS:    2923590
BTB BRANCH_OTHER ACCESS:          0  HIT:          0  MISS:          0

L2C TOTAL     ACCESS:   16710106  HIT:   15281616  MISS:    1428490  HIT %:    91.4513  MISS %:    8.54866   MPKI: 7.14245
L2C LOAD      ACCESS:   12386486  HIT:   11230344  MISS:    1156142  HIT %:    90.6661  MISS %:     9.3339   MPKI: 5.78071
L2C DATA LOAD MPKI: 1.93728
L2C INSTRUCTION LOAD MPKI: 3.84342
L2C RFO       ACCESS:    1068215  HIT:     856944  MISS:     211271  HIT %:    80.2221  MISS %:    19.7779   MPKI: 1.05635
L2C PREFETCH  ACCESS:    1459057  HIT:    1452904  MISS:       6153  HIT %:    99.5783  MISS %:   0.421711   MPKI: 0.030765
AGUS PREFETCH L1 MISS: 0
L2C DATA PREFETCH MPKI: 0.030765
L2C INSTRUCTION PREFETCH MPKI: 0
L2C WRITEBACK ACCESS:    1786035  HIT:    1737900  MISS:      48135  HIT %:    97.3049  MISS %:    2.69508   MPKI: 0.240675
L2C LOAD TRANSLATION ACCESS:      10313  HIT:       3524  MISS:       6789  HIT %:    34.1705  MISS %:    65.8295   MPKI: 0.033945
L2C PREFETCH  REQUESTED:    3073907  ISSUED:    3073907  USEFUL:       3088  USELESS:       3065
L2C USEFUL LOAD PREFETCHES:       3088 PREFETCH ISSUED TO LOWER LEVEL:    1266447  ACCURACY: 0.243832
L2C TIMELY PREFETCHES:       3088 LATE PREFETCHES: 22938 DROPPED PREFETCHES: 0
L2C PREFETCHES SAME FILL-ORIGIN LEVEL: 29091 DIFFERENT FILL-ORIGIN LEVEL: 1237356
L2C AVERAGE MISS LATENCY: 36.3605 cycles
L2C RQ	ACCESS:   13465063	FORWARD:          0	MERGED:          0	TO_CACHE:   13465016
L2C WQ	ACCESS:    1786035	FORWARD:         49	MERGED:          0	TO_CACHE:    1786035
L2C PQ	ACCESS:    3073907	FORWARD:          0	MERGED:     310426	TO_CACHE:    2763479

L2C Instructions Evicting Data 305303
L2C Translations Evicting Data 4900
L2C Data Evicting Data 322398
L2C Instructions Evicting Instructions 461672
L2C Translations Evicting Instructions 1768
L2C Data Evicting Instructions 277696
L2C Instructions Evicting Translations 1710
L2C Translations Evicting Translations 121
L2C Data Evicting Translations 4787
L2C Dense regions hint from L2: 0
PSCL5 TOTAL     ACCESS:       9351  HIT:       9351  MISS:          0  HIT %:        100  MISS %:          0   MPKI: 0
PSCL5 LOAD TRANSLATION ACCESS:       9351  HIT:       9351  MISS:          0  HIT %:        100  MISS %:          0   MPKI: 0
PSCL5 PREFETCH  REQUESTED:          0  ISSUED:          0  USEFUL:          0  USELESS:          0
PSCL5 USEFUL LOAD PREFETCHES:          0 PREFETCH ISSUED TO LOWER LEVEL:          0  ACCURACY: -nan
PSCL5 TIMELY PREFETCHES:          0 LATE PREFETCHES: 0 DROPPED PREFETCHES: 0
PSCL5 PREFETCHES SAME FILL-ORIGIN LEVEL: 0 DIFFERENT FILL-ORIGIN LEVEL: 0

PSCL4 TOTAL     ACCESS:       8729  HIT:       8698  MISS:         31  HIT %:    99.6449  MISS %:   0.355138   MPKI: 0.000155
PSCL4 LOAD TRANSLATION ACCESS:       8729  HIT:       8698  MISS:         31  HIT %:    99.6449  MISS %:   0.355138   MPKI: 0.000155
PSCL4 PREFETCH  REQUESTED:          0  ISSUED:          0  USEFUL:          0  USELESS:          0
PSCL4 USEFUL LOAD PREFETCHES:          0 PREFETCH ISSUED TO LOWER LEVEL:          0  ACCURACY: -nan
PSCL4 TIMELY PREFETCHES:          0 LATE PREFETCHES: 0 DROPPED PREFETCHES: 0
PSCL4 PREFETCHES SAME FILL-ORIGIN LEVEL: 0 DIFFERENT FILL-ORIGIN LEVEL: 0

PSCL3 TOTAL     ACCESS:       9255  HIT:       9224  MISS:         31  HIT %:     99.665  MISS %:   0.334954   MPKI: 0.000155
PSCL3 LOAD TRANSLATION ACCESS:       9255  HIT:       9224  MISS:         31  HIT %:     99.665  MISS %:   0.334954   MPKI: 0.000155
PSCL3 PREFETCH  REQUESTED:          0  ISSUED:          0  USEFUL:          0  USELESS:          0
PSCL3 USEFUL LOAD PREFETCHES:          0 PREFETCH ISSUED TO LOWER LEVEL:          0  ACCURACY: -nan
PSCL3 TIMELY PREFETCHES:          0 LATE PREFETCHES: 0 DROPPED PREFETCHES: 0
PSCL3 PREFETCHES SAME FILL-ORIGIN LEVEL: 0 DIFFERENT FILL-ORIGIN LEVEL: 0

PSCL2 TOTAL     ACCESS:       9351  HIT:       8451  MISS:        900  HIT %:    90.3754  MISS %:    9.62464   MPKI: 0.0045
PSCL2 LOAD TRANSLATION ACCESS:       9351  HIT:       8451  MISS:        900  HIT %:    90.3754  MISS %:    9.62464   MPKI: 0.0045
PSCL2 PREFETCH  REQUESTED:          0  ISSUED:          0  USEFUL:          0  USELESS:          0
PSCL2 USEFUL LOAD PREFETCHES:          0 PREFETCH ISSUED TO LOWER LEVEL:          0  ACCURACY: -nan
PSCL2 TIMELY PREFETCHES:          0 LATE PREFETCHES: 0 DROPPED PREFETCHES: 0
PSCL2 PREFETCHES SAME FILL-ORIGIN LEVEL: 0 DIFFERENT FILL-ORIGIN LEVEL: 0

LLC TOTAL     ACCESS:    2793971  HIT:    2703308  MISS:      90663  HIT %:     96.755  MISS %:    3.24495   MPKI: 0.453315
LLC LOAD      ACCESS:    1133202  HIT:    1107113  MISS:      26089  HIT %:    97.6978  MISS %:    2.30224   MPKI: 0.130445
LLC RFO       ACCESS:     211271  HIT:     171344  MISS:      39927  HIT %:    81.1015  MISS %:    18.8985   MPKI: 0.199635
LLC PREFETCH  ACCESS:    1157563  HIT:    1133994  MISS:      23569  HIT %:    97.9639  MISS %:    2.03609   MPKI: 0.117845
AGUS PREFETCH L1 MISS: 0
LLC WRITEBACK ACCESS:     285146  HIT:     284477  MISS:        669  HIT %:    99.7654  MISS %:   0.234617   MPKI: 0.003345
LLC LOAD TRANSLATION ACCESS:       6789  HIT:       6380  MISS:        409  HIT %:    93.9755  MISS %:    6.02445   MPKI: 0.002045
LLC PREFETCH  REQUESTED:          0  ISSUED:          0  USEFUL:       4245  USELESS:      18240
LLC USEFUL LOAD PREFETCHES:       4245 PREFETCH ISSUED TO LOWER LEVEL:      32852  ACCURACY: 12.9216
LLC TIMELY PREFETCHES:       4245 LATE PREFETCHES: 9283 DROPPED PREFETCHES: 0
LLC PREFETCHES SAME FILL-ORIGIN LEVEL: 32571 DIFFERENT FILL-ORIGIN LEVEL: 0
LLC AVERAGE MISS LATENCY: 159.066 cycles
LLC RQ	ACCESS:    1351264	FORWARD:          0	MERGED:          0	TO_CACHE:    1351262
LLC WQ	ACCESS:     285146	FORWARD:          7	MERGED:          0	TO_CACHE:     285146
LLC PQ	ACCESS:    1266447	FORWARD:          0	MERGED:      86066	TO_CACHE:    1180376

LLC Dense regions hint to LLC: 0

RAW hits: 1389283
Loads Generated: 48342365
Loads sent to L1D: 46953086
Stores Generated: 26311870
Stores sent to L1D: 26311887
Major fault: 0 Minor fault: 1910
Allocated PAGES: 1910
 All Calls: 3430120
 Critical Calls: 3430120
------------------
Depth Distribution
------------------
depth 0: 0
depth 1: 2410807
depth 2: 483096
depth 3: 334965
depth 4: 259097
depth 5: 193034
depth 6: 104141
depth 7: 55390
depth 8: 31084
depth 9: 13873
depth 10: 6364
depth 11: 2753
depth 12: 1008
depth 13: 39
depth 14: 0
depth 15: 0
depth 16: 0
depth 17: 0
depth 18: 0
depth 19: 0
depth 20: 0
depth 21: 0
depth 22: 0
depth 23: 0
depth 24: 0
depth 25: 0
depth 26: 0
depth 27: 0
depth 28: 0
depth 29: 0
Total: 3895651
-----------------------------
-----------------------------
	Captured at Filter
-----------------------------
depth 0: 0
depth 1: 86300
depth 2: 59851
depth 3: 55010
depth 4: 51676
depth 5: 44819
depth 6: 24560
depth 7: 10313
depth 8: 4271
depth 9: 419
depth 10: 53
depth 11: 15
depth 12: 3
depth 13: 1
depth 14: 0
depth 15: 0
depth 16: 0
depth 17: 0
depth 18: 0
depth 19: 0
depth 20: 0
depth 21: 0
depth 22: 0
depth 23: 0
depth 24: 0
depth 25: 0
depth 26: 0
depth 27: 0
depth 28: 0
depth 29: 0
-----------------------------
-----------------------------
		Lost at Page
-----------------------------
depth 0: 0
depth 1: 165598
depth 2: 14865
depth 3: 14167
depth 4: 17258
depth 5: 17785
depth 6: 12810
depth 7: 7964
depth 8: 4962
depth 9: 2377
depth 10: 1269
depth 11: 630
depth 12: 239
depth 13: 13
depth 14: 0
depth 15: 0
depth 16: 0
depth 17: 0
depth 18: 0
depth 19: 0
depth 20: 0
depth 21: 0
depth 22: 0
depth 23: 0
depth 24: 0
depth 25: 0
depth 26: 0
depth 27: 0
depth 28: 0
depth 29: 0
-----------------------------
-----------------------------
	Lost due to PQ Size
-----------------------------
14570
-----------------------------
ST read accesses: 2333952
ST write accesses: 411695
PT read accesses: 34747888
PT write accesses: 3015923
FILTER read accesses: 7469362
FILTER write accesses: 1637356
GHR read accesses: 4724158
GHR write accesses: 203168
GHR counter read accesses: 29387446
GHR counter write accesses: 2946590
ST tag read accesses: 1253481942
ST tag write accesses: 203754472

DRAM Statistics
 CHANNEL 0
 RQ ROW_BUFFER_HIT:      29078  ROW_BUFFER_MISS:      60884
 DBUS_CONGESTED:         64
 WQ ROW_BUFFER_HIT:       4374  ROW_BUFFER_MISS:      41717  FULL:          0

 AVG_CONGESTED_CYCLE: 5
 All warmup complete: 2
Channel 0 Bank busy for read cycles: 0
Channel 0 Bank busy for write cycles: 0
Channel 0
Rank 0
0banks busy for read cycles: 586053388
0banks busy for write cycles: 15305
1banks busy for read cycles: 3442944
1banks busy for write cycles: 1904342
2banks busy for read cycles: 782062
2banks busy for write cycles: 422621
3banks busy for read cycles: 363961
3banks busy for write cycles: 200342
4banks busy for read cycles: 246124
4banks busy for write cycles: 135915
5banks busy for read cycles: 183252
5banks busy for write cycles: 110456
6banks busy for read cycles: 142130
6banks busy for write cycles: 96963
7banks busy for read cycles: 111367
7banks busy for write cycles: 93333
8banks busy for read cycles: 126684
8banks busy for write cycles: 239058

CPU 0 Branch Prediction Accuracy: 99.8429% MPKI: 0.27698 Average ROB Occupancy at Mispredict: 53.001
Branch types
NOT_BRANCH: 164736745 82.3684%
BRANCH_DIRECT_JUMP: 2184471 1.09224%
BRANCH_INDIRECT: 11367631 5.68382%
BRANCH_CONDITIONAL: 13694607 6.8473%
BRANCH_DIRECT_CALL: 3386061 1.69303%
BRANCH_INDIRECT_CALL: 622186 0.311093%
BRANCH_RETURN: 4008227 2.00411%
BRANCH_OTHER: 0 0%

DRAM PAGES: 1048576
Allocated PAGES: 1910
