Initialize SIGNATURE TABLE
ST_SET: 1
ST_WAY: 256
ST_TAG_BIT: 16
ST_TAG_MASK: ffff

Initialize PATTERN TABLE
PT_SET: 512
PT_WAY: 4
SIG_DELTA_BIT: 7
C_SIG_BIT: 4
C_DELTA_BIT: 4

Initialize PREFETCH FILTER
FILTER_SET: 1024

*** ChampSim Multicore Out-of-Order Simulator ***

Warmup Instructions: 50000000
Simulation Instructions: 200000000
Number of CPUs: 1
LLC sets: 2048
LLC ways: 16
Off-chip DRAM Size: 4096 MB Channels: 1 Width: 64-bit Data Rate: 6400 MT/s
CPU 0 runs traces/spec2k17/srv_35.champsimtrace.xz
.xz
BTB has LRU replacement policy
ITLB has LRU replacement policy
DTLB has LRU replacement policy
STLB has LRU replacement policy
L1I has LRU replacement policy
L1D has LRU replacement policy
ST_WAYS: 256
PT_SETS: 512
Initialize SRRIP state for L2C
Initialize DRRIP state for LLC
Heartbeat CPU 0 instructions: 10000001 cycles: 2938331 heartbeat IPC: 3.40329 cumulative IPC: 3.40329 (Simulation time: 0 hr 0 min 38 sec) 
Heartbeat CPU 0 instructions: 20000000 cycles: 5880579 heartbeat IPC: 3.39876 cumulative IPC: 3.40103 (Simulation time: 0 hr 1 min 16 sec) 
Heartbeat CPU 0 instructions: 30000001 cycles: 8824185 heartbeat IPC: 3.39719 cumulative IPC: 3.39975 (Simulation time: 0 hr 1 min 58 sec) 
*** Reached end of trace for Core: 0 Repeating trace: traces/spec2k17/srv_35.champsimtrace.xz
Heartbeat CPU 0 instructions: 40000002 cycles: 11758223 heartbeat IPC: 3.40827 cumulative IPC: 3.40187 (Simulation time: 0 hr 2 min 37 sec) 
Heartbeat CPU 0 instructions: 50000000 cycles: 14699828 heartbeat IPC: 3.3995 cumulative IPC: 3.4014 (Simulation time: 0 hr 3 min 15 sec) 

Warmup complete CPU 0 instructions: 50000004 cycles: 14699829 (Simulation time: 0 hr 3 min 15 sec) 

Heartbeat CPU 0 instructions: 60000002 cycles: 34425989 heartbeat IPC: 0.506941 cumulative IPC: 0.506941 (Simulation time: 0 hr 4 min 27 sec) 
*** Reached end of trace for Core: 0 Repeating trace: traces/spec2k17/srv_35.champsimtrace.xz
Heartbeat CPU 0 instructions: 70000001 cycles: 53720725 heartbeat IPC: 0.518276 cumulative IPC: 0.512546 (Simulation time: 0 hr 5 min 32 sec) 
Heartbeat CPU 0 instructions: 80000002 cycles: 73340346 heartbeat IPC: 0.509694 cumulative IPC: 0.511592 (Simulation time: 0 hr 6 min 39 sec) 
Heartbeat CPU 0 instructions: 90000003 cycles: 93043230 heartbeat IPC: 0.50754 cumulative IPC: 0.510573 (Simulation time: 0 hr 7 min 40 sec) 
*** Reached end of trace for Core: 0 Repeating trace: traces/spec2k17/srv_35.champsimtrace.xz
Heartbeat CPU 0 instructions: 100000001 cycles: 112347552 heartbeat IPC: 0.518019 cumulative IPC: 0.512045 (Simulation time: 0 hr 8 min 44 sec) 
Heartbeat CPU 0 instructions: 110000000 cycles: 131989106 heartbeat IPC: 0.509125 cumulative IPC: 0.511556 (Simulation time: 0 hr 9 min 51 sec) 
Heartbeat CPU 0 instructions: 120000000 cycles: 151709263 heartbeat IPC: 0.507095 cumulative IPC: 0.510914 (Simulation time: 0 hr 10 min 59 sec) 
*** Reached end of trace for Core: 0 Repeating trace: traces/spec2k17/srv_35.champsimtrace.xz
Heartbeat CPU 0 instructions: 130000001 cycles: 170981326 heartbeat IPC: 0.518886 cumulative IPC: 0.511897 (Simulation time: 0 hr 12 min 8 sec) 
Heartbeat CPU 0 instructions: 140000002 cycles: 190640557 heartbeat IPC: 0.508667 cumulative IPC: 0.511536 (Simulation time: 0 hr 13 min 16 sec) 
Heartbeat CPU 0 instructions: 150000002 cycles: 210277233 heartbeat IPC: 0.509251 cumulative IPC: 0.511307 (Simulation time: 0 hr 14 min 27 sec) 
Heartbeat CPU 0 instructions: 160000001 cycles: 229696283 heartbeat IPC: 0.514958 cumulative IPC: 0.511636 (Simulation time: 0 hr 15 min 35 sec) 
*** Reached end of trace for Core: 0 Repeating trace: traces/spec2k17/srv_35.champsimtrace.xz
Heartbeat CPU 0 instructions: 170000000 cycles: 249000001 heartbeat IPC: 0.518035 cumulative IPC: 0.512164 (Simulation time: 0 hr 16 min 44 sec) 
Heartbeat CPU 0 instructions: 180000000 cycles: 268799647 heartbeat IPC: 0.50506 cumulative IPC: 0.51161 (Simulation time: 0 hr 17 min 51 sec) 
Heartbeat CPU 0 instructions: 190000003 cycles: 288271988 heartbeat IPC: 0.513549 cumulative IPC: 0.511748 (Simulation time: 0 hr 18 min 59 sec) 
*** Reached end of trace for Core: 0 Repeating trace: traces/spec2k17/srv_35.champsimtrace.xz
Heartbeat CPU 0 instructions: 200000001 cycles: 307543231 heartbeat IPC: 0.518908 cumulative IPC: 0.512219 (Simulation time: 0 hr 20 min 5 sec) 
Heartbeat CPU 0 instructions: 210000003 cycles: 327137126 heartbeat IPC: 0.510363 cumulative IPC: 0.512103 (Simulation time: 0 hr 21 min 12 sec) 
Heartbeat CPU 0 instructions: 220000000 cycles: 346755064 heartbeat IPC: 0.509737 cumulative IPC: 0.511963 (Simulation time: 0 hr 22 min 20 sec) 
*** Reached end of trace for Core: 0 Repeating trace: traces/spec2k17/srv_35.champsimtrace.xz
Heartbeat CPU 0 instructions: 230000000 cycles: 366035192 heartbeat IPC: 0.518669 cumulative IPC: 0.512331 (Simulation time: 0 hr 23 min 27 sec) 
Heartbeat CPU 0 instructions: 240000001 cycles: 385620468 heartbeat IPC: 0.510588 cumulative IPC: 0.512239 (Simulation time: 0 hr 24 min 31 sec) 
Heartbeat CPU 0 instructions: 250000001 cycles: 405301031 heartbeat IPC: 0.508116 cumulative IPC: 0.512031 (Simulation time: 0 hr 25 min 38 sec) 
Finished CPU 0 instructions: 200000001 cycles: 390601203 cumulative IPC: 0.512031 (Simulation time: 0 hr 25 min 38 sec) 

ChampSim completed all CPUs

Region of Interest Statistics

CPU 0 cumulative IPC: 0.512031 instructions: 200000001 cycles: 390601203
ITLB TOTAL     ACCESS:   33734219  HIT:   32195905  MISS:    1538314  HIT %:    95.4399  MISS %:     4.5601   MPKI: 7.69157
ITLB LOAD TRANSLATION ACCESS:   33734219  HIT:   32195905  MISS:    1538314  HIT %:    95.4399  MISS %:     4.5601   MPKI: 7.69157
ITLB PREFETCH  REQUESTED:          0  ISSUED:          0  USEFUL:          0  USELESS:          0
ITLB USEFUL LOAD PREFETCHES:          0 PREFETCH ISSUED TO LOWER LEVEL:          0  ACCURACY: -nan
ITLB TIMELY PREFETCHES:          0 LATE PREFETCHES: 0 DROPPED PREFETCHES: 0
ITLB PREFETCHES SAME FILL-ORIGIN LEVEL: 0 DIFFERENT FILL-ORIGIN LEVEL: 0
ITLB AVERAGE MISS LATENCY: 9.29302 cycles
ITLB RQ	ACCESS:   40643423	FORWARD:          0	MERGED:    6414713	TO_CACHE:   34228710

DTLB TOTAL     ACCESS:   39850704  HIT:   38319101  MISS:    1531603  HIT %:    96.1566  MISS %:    3.84335   MPKI: 7.65801
DTLB LOAD TRANSLATION ACCESS:   39850704  HIT:   38319101  MISS:    1531603  HIT %:    96.1566  MISS %:    3.84335   MPKI: 7.65801
DTLB PREFETCH  REQUESTED:          0  ISSUED:          0  USEFUL:          0  USELESS:          0
DTLB USEFUL LOAD PREFETCHES:          0 PREFETCH ISSUED TO LOWER LEVEL:          0  ACCURACY: -nan
DTLB TIMELY PREFETCHES:          0 LATE PREFETCHES: 0 DROPPED PREFETCHES: 0
DTLB PREFETCHES SAME FILL-ORIGIN LEVEL: 0 DIFFERENT FILL-ORIGIN LEVEL: 0
DTLB AVERAGE MISS LATENCY: 15.9273 cycles
DTLB RQ	ACCESS:   61006522	FORWARD:          0	MERGED:   20748246	TO_CACHE:   40258276

STLB TOTAL     ACCESS:    3069916  HIT:    2991738  MISS:      78178  HIT %:    97.4534  MISS %:    2.54658   MPKI: 0.39089
STLB LOAD TRANSLATION ACCESS:    3069916  HIT:    2991738  MISS:      78178  HIT %:    97.4534  MISS %:    2.54658   MPKI: 0.39089
STLB PREFETCH  REQUESTED:          0  ISSUED:          0  USEFUL:          0  USELESS:          0
STLB USEFUL LOAD PREFETCHES:          0 PREFETCH ISSUED TO LOWER LEVEL:          0  ACCURACY: -nan
STLB TIMELY PREFETCHES:          0 LATE PREFETCHES: 0 DROPPED PREFETCHES: 0
STLB PREFETCHES SAME FILL-ORIGIN LEVEL: 0 DIFFERENT FILL-ORIGIN LEVEL: 0
STLB AVERAGE MISS LATENCY: 141.154 cycles
STLB RQ	ACCESS:    3069916	FORWARD:          0	MERGED:          0	TO_CACHE:    3069916

STLB Hit, L1D data hit: 0
STLB Hit, L2C data hit: 0
STLB Hit, LLC data hit: 0
STLB Hit, LLC data miss: 0
STLB STLB hints to L2: 0
L1D TOTAL     ACCESS:   48450755  HIT:   41690999  MISS:    6759756  HIT %:    86.0482  MISS %:    13.9518   MPKI: 33.7988
L1D LOAD      ACCESS:   26579438  HIT:   23501909  MISS:    3077529  HIT %:    88.4214  MISS %:    11.5786   MPKI: 15.3876
L1D RFO       ACCESS:   21871317  HIT:   18189090  MISS:    3682227  HIT %:    83.1641  MISS %:    16.8359   MPKI: 18.4111
L1D PREFETCH  REQUESTED:          0  ISSUED:          0  USEFUL:          0  USELESS:          0
L1D USEFUL LOAD PREFETCHES:          0 PREFETCH ISSUED TO LOWER LEVEL:          0  ACCURACY: -nan
L1D TIMELY PREFETCHES:          0 LATE PREFETCHES: 0 DROPPED PREFETCHES: 0
L1D PREFETCHES SAME FILL-ORIGIN LEVEL: 0 DIFFERENT FILL-ORIGIN LEVEL: 0
L1D AVERAGE MISS LATENCY: 164.957 cycles
L1D RQ	ACCESS:   45164782	FORWARD:          0	MERGED:   17805362	TO_CACHE:   27077666
L1D WQ	ACCESS:   34133601	FORWARD:     281754	MERGED:     204745	TO_CACHE:   33928856

L1D UNIQUE REGIONS ACCESSED: 0
L1D REGIONS CONFLICTS: 0
L1D Cross Page Prefetch Requests: 0
L1D Same Page Prefetch Requests: 0
L1D ROI Sum of L1D PQ occupancy: 0
L1D PREFETCHES PUSHED FROM L2C: 0
L1I TOTAL     ACCESS:   37984840  HIT:   28879376  MISS:    9105464  HIT %:    76.0287  MISS %:    23.9713   MPKI: 45.5273
L1I LOAD      ACCESS:   37984840  HIT:   28879376  MISS:    9105464  HIT %:    76.0287  MISS %:    23.9713   MPKI: 45.5273
L1I PREFETCH  REQUESTED:          0  ISSUED:          0  USEFUL:          0  USELESS:          0
L1I USEFUL LOAD PREFETCHES:          0 PREFETCH ISSUED TO LOWER LEVEL:          0  ACCURACY: -nan
L1I TIMELY PREFETCHES:          0 LATE PREFETCHES: 0 DROPPED PREFETCHES: 0
L1I PREFETCHES SAME FILL-ORIGIN LEVEL: 0 DIFFERENT FILL-ORIGIN LEVEL: 0
L1I AVERAGE MISS LATENCY: 17.4421 cycles
L1I RQ	ACCESS:   58847366	FORWARD:          0	MERGED:   18203943	TO_CACHE:   40643423

BTB TOTAL     ACCESS:   25730486  HIT:   24146050  MISS:    1584436  HIT %:    93.8422  MISS %:    6.15782   MPKI: 7.92218
BTB BRANCH_DIRECT_JUMP	ACCESS:    1658705  HIT:    1646126  MISS:      12579
BTB BRANCH_INDIRECT	ACCESS:    9991433  HIT:    9459139  MISS:     532294
BTB BRANCH_CONDITIONAL	ACCESS:    7236367  HIT:    7219065  MISS:      17302
BTB BRANCH_DIRECT_CALL	ACCESS:    2824055  HIT:    2784656  MISS:      39399
BTB BRANCH_INDIRECT_CALL	ACCESS:     597965  HIT:     486107  MISS:     111858
BTB BRANCH_RETURN	ACCESS:    3421961  HIT:    2550957  MISS:     871004
BTB BRANCH_OTHER ACCESS:          0  HIT:          0  MISS:          0

L2C TOTAL     ACCESS:   21667614  HIT:   15058986  MISS:    6608628  HIT %:       69.5  MISS %:       30.5   MPKI: 33.0431
L2C LOAD      ACCESS:   12182757  HIT:    9410629  MISS:    2772128  HIT %:    77.2455  MISS %:    22.7545   MPKI: 13.8606
L2C DATA LOAD MPKI: 10.9756
L2C INSTRUCTION LOAD MPKI: 2.88504
L2C RFO       ACCESS:    3682221  HIT:     167047  MISS:    3515174  HIT %:    4.53658  MISS %:    95.4634   MPKI: 17.5759
L2C PREFETCH  ACCESS:    1380995  HIT:    1257412  MISS:     123583  HIT %:    91.0512  MISS %:    8.94884   MPKI: 0.617915
AGUS PREFETCH L1 MISS: 0
L2C DATA PREFETCH MPKI: 0.617915
L2C INSTRUCTION PREFETCH MPKI: 0
L2C WRITEBACK ACCESS:    4330787  HIT:    4177529  MISS:     153258  HIT %:    96.4612  MISS %:     3.5388   MPKI: 0.76629
L2C LOAD TRANSLATION ACCESS:      90854  HIT:      46369  MISS:      44485  HIT %:    51.0368  MISS %:    48.9632   MPKI: 0.222425
L2C PREFETCH  REQUESTED:   11030229  ISSUED:   11029897  USEFUL:     108564  USELESS:      15018
L2C USEFUL LOAD PREFETCHES:     108564 PREFETCH ISSUED TO LOWER LEVEL:    5323189  ACCURACY: 2.03945
L2C TIMELY PREFETCHES:     108564 LATE PREFETCHES: 297334 DROPPED PREFETCHES: 0
L2C PREFETCHES SAME FILL-ORIGIN LEVEL: 420917 DIFFERENT FILL-ORIGIN LEVEL: 4902272
L2C AVERAGE MISS LATENCY: 161.045 cycles
L2C RQ	ACCESS:   15956074	FORWARD:          0	MERGED:          0	TO_CACHE:   15955832
L2C WQ	ACCESS:    4330788	FORWARD:        242	MERGED:          0	TO_CACHE:    4330788
L2C PQ	ACCESS:   11029897	FORWARD:          0	MERGED:    3851860	TO_CACHE:    7178037

L2C Instructions Evicting Data 524169
L2C Translations Evicting Data 40682
L2C Data Evicting Data 5283670
L2C Instructions Evicting Instructions 48998
L2C Translations Evicting Instructions 3560
L2C Data Evicting Instructions 510541
L2C Instructions Evicting Translations 3842
L2C Translations Evicting Translations 243
L2C Data Evicting Translations 39665
L2C Dense regions hint from L2: 0
PSCL5 TOTAL     ACCESS:      78178  HIT:      78178  MISS:          0  HIT %:        100  MISS %:          0   MPKI: 0
PSCL5 LOAD TRANSLATION ACCESS:      78178  HIT:      78178  MISS:          0  HIT %:        100  MISS %:          0   MPKI: 0
PSCL5 PREFETCH  REQUESTED:          0  ISSUED:          0  USEFUL:          0  USELESS:          0
PSCL5 USEFUL LOAD PREFETCHES:          0 PREFETCH ISSUED TO LOWER LEVEL:          0  ACCURACY: -nan
PSCL5 TIMELY PREFETCHES:          0 LATE PREFETCHES: 0 DROPPED PREFETCHES: 0
PSCL5 PREFETCHES SAME FILL-ORIGIN LEVEL: 0 DIFFERENT FILL-ORIGIN LEVEL: 0

PSCL4 TOTAL     ACCESS:      76477  HIT:      76318  MISS:        159  HIT %:    99.7921  MISS %:   0.207906   MPKI: 0.000795
PSCL4 LOAD TRANSLATION ACCESS:      76477  HIT:      76318  MISS:        159  HIT %:    99.7921  MISS %:   0.207906   MPKI: 0.000795
PSCL4 PREFETCH  REQUESTED:          0  ISSUED:          0  USEFUL:          0  USELESS:          0
PSCL4 USEFUL LOAD PREFETCHES:          0 PREFETCH ISSUED TO LOWER LEVEL:          0  ACCURACY: -nan
PSCL4 TIMELY PREFETCHES:          0 LATE PREFETCHES: 0 DROPPED PREFETCHES: 0
PSCL4 PREFETCHES SAME FILL-ORIGIN LEVEL: 0 DIFFERENT FILL-ORIGIN LEVEL: 0

PSCL3 TOTAL     ACCESS:      70114  HIT:      68908  MISS:       1206  HIT %:    98.2799  MISS %:    1.72006   MPKI: 0.00603
PSCL3 LOAD TRANSLATION ACCESS:      70114  HIT:      68908  MISS:       1206  HIT %:    98.2799  MISS %:    1.72006   MPKI: 0.00603
PSCL3 PREFETCH  REQUESTED:          0  ISSUED:          0  USEFUL:          0  USELESS:          0
PSCL3 USEFUL LOAD PREFETCHES:          0 PREFETCH ISSUED TO LOWER LEVEL:          0  ACCURACY: -nan
PSCL3 TIMELY PREFETCHES:          0 LATE PREFETCHES: 0 DROPPED PREFETCHES: 0
PSCL3 PREFETCHES SAME FILL-ORIGIN LEVEL: 0 DIFFERENT FILL-ORIGIN LEVEL: 0

PSCL2 TOTAL     ACCESS:      78178  HIT:      66867  MISS:      11311  HIT %:    85.5317  MISS %:    14.4683   MPKI: 0.056555
PSCL2 LOAD TRANSLATION ACCESS:      78178  HIT:      66867  MISS:      11311  HIT %:    85.5317  MISS %:    14.4683   MPKI: 0.056555
PSCL2 PREFETCH  REQUESTED:          0  ISSUED:          0  USEFUL:          0  USELESS:          0
PSCL2 USEFUL LOAD PREFETCHES:          0 PREFETCH ISSUED TO LOWER LEVEL:          0  ACCURACY: -nan
PSCL2 TIMELY PREFETCHES:          0 LATE PREFETCHES: 0 DROPPED PREFETCHES: 0
PSCL2 PREFETCHES SAME FILL-ORIGIN LEVEL: 0 DIFFERENT FILL-ORIGIN LEVEL: 0

LLC TOTAL     ACCESS:   13389034  HIT:    6374895  MISS:    7014139  HIT %:    47.6128  MISS %:    52.3872   MPKI: 35.0707
LLC LOAD      ACCESS:    2474807  HIT:    1967300  MISS:     507507  HIT %:    79.4931  MISS %:    20.5069   MPKI: 2.53753
LLC RFO       ACCESS:    3515146  HIT:     667571  MISS:    2847575  HIT %:    18.9913  MISS %:    81.0087   MPKI: 14.2379
LLC PREFETCH  ACCESS:    3345879  HIT:    2527556  MISS:     818323  HIT %:    75.5424  MISS %:    24.4576   MPKI: 4.09161
AGUS PREFETCH L1 MISS: 0
LLC WRITEBACK ACCESS:    4008717  HIT:    1204207  MISS:    2804510  HIT %:    30.0397  MISS %:    69.9603   MPKI: 14.0225
LLC LOAD TRANSLATION ACCESS:      44485  HIT:       8261  MISS:      36224  HIT %:    18.5703  MISS %:    81.4297   MPKI: 0.18112
LLC PREFETCH  REQUESTED:          0  ISSUED:          0  USEFUL:     337025  USELESS:     483490
LLC USEFUL LOAD PREFETCHES:     337025 PREFETCH ISSUED TO LOWER LEVEL:    1008536  ACCURACY: 33.4173
LLC TIMELY PREFETCHES:     337025 LATE PREFETCHES: 190211 DROPPED PREFETCHES: 0
LLC PREFETCHES SAME FILL-ORIGIN LEVEL: 995109 DIFFERENT FILL-ORIGIN LEVEL: 0
LLC AVERAGE MISS LATENCY: 147.717 cycles
LLC RQ	ACCESS:    6034453	FORWARD:          0	MERGED:          0	TO_CACHE:    6034438
LLC WQ	ACCESS:    4008718	FORWARD:         15	MERGED:          0	TO_CACHE:    4008718
LLC PQ	ACCESS:    5323189	FORWARD:          0	MERGED:     917888	TO_CACHE:    4405301

LLC Dense regions hint to LLC: 0

RAW hits: 2554744
Loads Generated: 47719525
Loads sent to L1D: 45164782
Stores Generated: 34133591
Stores sent to L1D: 34133601
Major fault: 0 Minor fault: 9063
Allocated PAGES: 9063
 All Calls: 3848823
 Critical Calls: 3848823
------------------
Depth Distribution
------------------
depth 0: 0
depth 1: 3077113
depth 2: 1942855
depth 3: 1636048
depth 4: 1494487
depth 5: 1407870
depth 6: 1335119
depth 7: 1238290
depth 8: 910130
depth 9: 649749
depth 10: 177257
depth 11: 25542
depth 12: 304
depth 13: 0
depth 14: 0
depth 15: 0
depth 16: 0
depth 17: 0
depth 18: 0
depth 19: 0
depth 20: 0
depth 21: 0
depth 22: 0
depth 23: 0
depth 24: 0
depth 25: 0
depth 26: 0
depth 27: 0
depth 28: 0
depth 29: 0
Total: 13894764
-----------------------------
-----------------------------
	Captured at Filter
-----------------------------
depth 0: 0
depth 1: 9416
depth 2: 4851
depth 3: 3553
depth 4: 3247
depth 5: 3520
depth 6: 4072
depth 7: 4547
depth 8: 3954
depth 9: 3270
depth 10: 835
depth 11: 135
depth 12: 4
depth 13: 0
depth 14: 0
depth 15: 0
depth 16: 0
depth 17: 0
depth 18: 0
depth 19: 0
depth 20: 0
depth 21: 0
depth 22: 0
depth 23: 0
depth 24: 0
depth 25: 0
depth 26: 0
depth 27: 0
depth 28: 0
depth 29: 0
-----------------------------
-----------------------------
		Lost at Page
-----------------------------
depth 0: 0
depth 1: 140165
depth 2: 68272
depth 3: 66050
depth 4: 80852
depth 5: 100563
depth 6: 126005
depth 7: 149753
depth 8: 134403
depth 9: 114344
depth 10: 36885
depth 11: 6049
depth 12: 81
depth 13: 0
depth 14: 0
depth 15: 0
depth 16: 0
depth 17: 0
depth 18: 0
depth 19: 0
depth 20: 0
depth 21: 0
depth 22: 0
depth 23: 0
depth 24: 0
depth 25: 0
depth 26: 0
depth 27: 0
depth 28: 0
depth 29: 0
-----------------------------
-----------------------------
	Lost due to PQ Size
-----------------------------
2130
-----------------------------
ST read accesses: 2906654
ST write accesses: 170639
PT read accesses: 80123967
PT write accesses: 4011641
FILTER read accesses: 20748866
FILTER write accesses: 8249096
GHR read accesses: 6431023
GHR write accesses: 815717
GHR counter read accesses: 65454830
GHR counter write accesses: 4709104
ST tag read accesses: 1269845835
ST tag write accesses: 87693346

DRAM Statistics
 CHANNEL 0
 RQ ROW_BUFFER_HIT:    2018930  ROW_BUFFER_MISS:    2190160
 DBUS_CONGESTED:       2089
 WQ ROW_BUFFER_HIT:     629387  ROW_BUFFER_MISS:    2379180  FULL:      47792

 AVG_CONGESTED_CYCLE: 3
 All warmup complete: 2
Channel 0 Bank busy for read cycles: 0
Channel 0 Bank busy for write cycles: 0
Channel 0
Rank 0
0banks busy for read cycles: 146042931
0banks busy for write cycles: 250504
1banks busy for read cycles: 47494050
1banks busy for write cycles: 34031749
2banks busy for read cycles: 18387554
2banks busy for write cycles: 16084870
3banks busy for read cycles: 16101728
3banks busy for write cycles: 8892863
4banks busy for read cycles: 5660799
4banks busy for write cycles: 5783580
5banks busy for read cycles: 4777739
5banks busy for write cycles: 4444479
6banks busy for read cycles: 5314694
6banks busy for write cycles: 4035623
7banks busy for read cycles: 7345227
7banks busy for write cycles: 6717206
8banks busy for read cycles: 22409193
8banks busy for write cycles: 36826415

CPU 0 Branch Prediction Accuracy: 99.9446% MPKI: 0.08472 Average ROB Occupancy at Mispredict: 114.431
Branch types
NOT_BRANCH: 169425231 84.7126%
BRANCH_DIRECT_JUMP: 1658705 0.829352%
BRANCH_INDIRECT: 9991433 4.99572%
BRANCH_CONDITIONAL: 12080658 6.04033%
BRANCH_DIRECT_CALL: 2824055 1.41203%
BRANCH_INDIRECT_CALL: 597965 0.298982%
BRANCH_RETURN: 3421961 1.71098%
BRANCH_OTHER: 0 0%

DRAM PAGES: 1048576
Allocated PAGES: 9063
