Initialize SIGNATURE TABLE
ST_SET: 1
ST_WAY: 256
ST_TAG_BIT: 16
ST_TAG_MASK: ffff

Initialize PATTERN TABLE
PT_SET: 512
PT_WAY: 4
SIG_DELTA_BIT: 7
C_SIG_BIT: 4
C_DELTA_BIT: 4

Initialize PREFETCH FILTER
FILTER_SET: 1024

*** ChampSim Multicore Out-of-Order Simulator ***

Warmup Instructions: 50000000
Simulation Instructions: 200000000
Number of CPUs: 1
LLC sets: 2048
LLC ways: 16
Off-chip DRAM Size: 4096 MB Channels: 1 Width: 64-bit Data Rate: 6400 MT/s
CPU 0 runs traces/spec2k17/srv_41.champsimtrace.xz
.xz
BTB has LRU replacement policy
ITLB has LRU replacement policy
DTLB has LRU replacement policy
STLB has LRU replacement policy
L1I has LRU replacement policy
L1D has LRU replacement policy
ST_WAYS: 256
PT_SETS: 512
Initialize SRRIP state for L2C
Initialize DRRIP state for LLC
Heartbeat CPU 0 instructions: 10000000 cycles: 2869091 heartbeat IPC: 3.48542 cumulative IPC: 3.48542 (Simulation time: 0 hr 0 min 34 sec) 
Heartbeat CPU 0 instructions: 20000003 cycles: 5729709 heartbeat IPC: 3.49575 cumulative IPC: 3.49058 (Simulation time: 0 hr 1 min 5 sec) 
Heartbeat CPU 0 instructions: 30000002 cycles: 8606613 heartbeat IPC: 3.47596 cumulative IPC: 3.48569 (Simulation time: 0 hr 1 min 38 sec) 
*** Reached end of trace for Core: 0 Repeating trace: traces/spec2k17/srv_41.champsimtrace.xz
Heartbeat CPU 0 instructions: 40000001 cycles: 11454720 heartbeat IPC: 3.5111 cumulative IPC: 3.49201 (Simulation time: 0 hr 2 min 9 sec) 
Heartbeat CPU 0 instructions: 50000000 cycles: 14319208 heartbeat IPC: 3.49102 cumulative IPC: 3.49181 (Simulation time: 0 hr 2 min 39 sec) 

Warmup complete CPU 0 instructions: 50000004 cycles: 14319209 (Simulation time: 0 hr 2 min 39 sec) 

Heartbeat CPU 0 instructions: 60000002 cycles: 40168247 heartbeat IPC: 0.386862 cumulative IPC: 0.386862 (Simulation time: 0 hr 3 min 33 sec) 
*** Reached end of trace for Core: 0 Repeating trace: traces/spec2k17/srv_41.champsimtrace.xz
Heartbeat CPU 0 instructions: 70000002 cycles: 60522290 heartbeat IPC: 0.491303 cumulative IPC: 0.432872 (Simulation time: 0 hr 4 min 21 sec) 
Heartbeat CPU 0 instructions: 80000002 cycles: 83163956 heartbeat IPC: 0.441664 cumulative IPC: 0.435763 (Simulation time: 0 hr 5 min 11 sec) 
Heartbeat CPU 0 instructions: 90000000 cycles: 108465780 heartbeat IPC: 0.395228 cumulative IPC: 0.424869 (Simulation time: 0 hr 6 min 3 sec) 
*** Reached end of trace for Core: 0 Repeating trace: traces/spec2k17/srv_41.champsimtrace.xz
Heartbeat CPU 0 instructions: 100000001 cycles: 129180423 heartbeat IPC: 0.48275 cumulative IPC: 0.435308 (Simulation time: 0 hr 6 min 49 sec) 
Heartbeat CPU 0 instructions: 110000000 cycles: 152443889 heartbeat IPC: 0.429859 cumulative IPC: 0.43439 (Simulation time: 0 hr 7 min 39 sec) 
Heartbeat CPU 0 instructions: 120000001 cycles: 177387899 heartbeat IPC: 0.400898 cumulative IPC: 0.429267 (Simulation time: 0 hr 8 min 31 sec) 
*** Reached end of trace for Core: 0 Repeating trace: traces/spec2k17/srv_41.champsimtrace.xz
Heartbeat CPU 0 instructions: 130000003 cycles: 198560502 heartbeat IPC: 0.472309 cumulative IPC: 0.434213 (Simulation time: 0 hr 9 min 22 sec) 
Heartbeat CPU 0 instructions: 140000000 cycles: 221322382 heartbeat IPC: 0.439331 cumulative IPC: 0.434776 (Simulation time: 0 hr 10 min 12 sec) 
Heartbeat CPU 0 instructions: 150000003 cycles: 245694832 heartbeat IPC: 0.410299 cumulative IPC: 0.432198 (Simulation time: 0 hr 11 min 1 sec) 
*** Reached end of trace for Core: 0 Repeating trace: traces/spec2k17/srv_41.champsimtrace.xz
Heartbeat CPU 0 instructions: 160000000 cycles: 267004971 heartbeat IPC: 0.46926 cumulative IPC: 0.435323 (Simulation time: 0 hr 11 min 52 sec) 
Heartbeat CPU 0 instructions: 170000000 cycles: 291300383 heartbeat IPC: 0.4116 cumulative IPC: 0.433242 (Simulation time: 0 hr 12 min 41 sec) 
Heartbeat CPU 0 instructions: 180000001 cycles: 313975357 heartbeat IPC: 0.441015 cumulative IPC: 0.433831 (Simulation time: 0 hr 13 min 32 sec) 
*** Reached end of trace for Core: 0 Repeating trace: traces/spec2k17/srv_41.champsimtrace.xz
Heartbeat CPU 0 instructions: 190000000 cycles: 335428327 heartbeat IPC: 0.466136 cumulative IPC: 0.435989 (Simulation time: 0 hr 14 min 24 sec) 
Heartbeat CPU 0 instructions: 200000000 cycles: 360021036 heartbeat IPC: 0.406625 cumulative IPC: 0.4339 (Simulation time: 0 hr 15 min 18 sec) 
Heartbeat CPU 0 instructions: 210000003 cycles: 381526597 heartbeat IPC: 0.464996 cumulative IPC: 0.435721 (Simulation time: 0 hr 16 min 10 sec) 
*** Reached end of trace for Core: 0 Repeating trace: traces/spec2k17/srv_41.champsimtrace.xz
Heartbeat CPU 0 instructions: 220000000 cycles: 405125732 heartbeat IPC: 0.423744 cumulative IPC: 0.434998 (Simulation time: 0 hr 17 min 1 sec) 
Heartbeat CPU 0 instructions: 230000000 cycles: 427977660 heartbeat IPC: 0.4376 cumulative IPC: 0.435142 (Simulation time: 0 hr 17 min 55 sec) 
Heartbeat CPU 0 instructions: 240000000 cycles: 449755803 heartbeat IPC: 0.459176 cumulative IPC: 0.436344 (Simulation time: 0 hr 18 min 46 sec) 
*** Reached end of trace for Core: 0 Repeating trace: traces/spec2k17/srv_41.champsimtrace.xz
Heartbeat CPU 0 instructions: 250000002 cycles: 473745625 heartbeat IPC: 0.416844 cumulative IPC: 0.435325 (Simulation time: 0 hr 19 min 39 sec) 
Finished CPU 0 instructions: 200000002 cycles: 459426417 cumulative IPC: 0.435325 (Simulation time: 0 hr 19 min 39 sec) 

ChampSim completed all CPUs

Region of Interest Statistics

CPU 0 cumulative IPC: 0.435325 instructions: 200000002 cycles: 459426417
ITLB TOTAL     ACCESS:   34226007  HIT:   33339901  MISS:     886106  HIT %:     97.411  MISS %:    2.58898   MPKI: 4.43053
ITLB LOAD TRANSLATION ACCESS:   34226007  HIT:   33339901  MISS:     886106  HIT %:     97.411  MISS %:    2.58898   MPKI: 4.43053
ITLB PREFETCH  REQUESTED:          0  ISSUED:          0  USEFUL:          0  USELESS:          0
ITLB USEFUL LOAD PREFETCHES:          0 PREFETCH ISSUED TO LOWER LEVEL:          0  ACCURACY: -nan
ITLB TIMELY PREFETCHES:          0 LATE PREFETCHES: 0 DROPPED PREFETCHES: 0
ITLB PREFETCHES SAME FILL-ORIGIN LEVEL: 0 DIFFERENT FILL-ORIGIN LEVEL: 0
ITLB AVERAGE MISS LATENCY: 10.3138 cycles
ITLB RQ	ACCESS:   39106028	FORWARD:          0	MERGED:    4619275	TO_CACHE:   34486753

DTLB TOTAL     ACCESS:   38183035  HIT:   37200026  MISS:     983009  HIT %:    97.4255  MISS %:    2.57447   MPKI: 4.91504
DTLB LOAD TRANSLATION ACCESS:   38183035  HIT:   37200026  MISS:     983009  HIT %:    97.4255  MISS %:    2.57447   MPKI: 4.91504
DTLB PREFETCH  REQUESTED:          0  ISSUED:          0  USEFUL:          0  USELESS:          0
DTLB USEFUL LOAD PREFETCHES:          0 PREFETCH ISSUED TO LOWER LEVEL:          0  ACCURACY: -nan
DTLB TIMELY PREFETCHES:          0 LATE PREFETCHES: 0 DROPPED PREFETCHES: 0
DTLB PREFETCHES SAME FILL-ORIGIN LEVEL: 0 DIFFERENT FILL-ORIGIN LEVEL: 0
DTLB AVERAGE MISS LATENCY: 15.183 cycles
DTLB RQ	ACCESS:   50574143	FORWARD:          0	MERGED:   12320861	TO_CACHE:   38253282

STLB TOTAL     ACCESS:    1869115  HIT:    1767997  MISS:     101118  HIT %:    94.5901  MISS %:    5.40994   MPKI: 0.50559
STLB LOAD TRANSLATION ACCESS:    1869115  HIT:    1767997  MISS:     101118  HIT %:    94.5901  MISS %:    5.40994   MPKI: 0.50559
STLB PREFETCH  REQUESTED:          0  ISSUED:          0  USEFUL:          0  USELESS:          0
STLB USEFUL LOAD PREFETCHES:          0 PREFETCH ISSUED TO LOWER LEVEL:          0  ACCURACY: -nan
STLB TIMELY PREFETCHES:          0 LATE PREFETCHES: 0 DROPPED PREFETCHES: 0
STLB PREFETCHES SAME FILL-ORIGIN LEVEL: 0 DIFFERENT FILL-ORIGIN LEVEL: 0
STLB AVERAGE MISS LATENCY: 71.4948 cycles
STLB RQ	ACCESS:    1869115	FORWARD:          0	MERGED:          0	TO_CACHE:    1869115

STLB Hit, L1D data hit: 0
STLB Hit, L2C data hit: 0
STLB Hit, LLC data hit: 0
STLB Hit, LLC data miss: 0
STLB STLB hints to L2: 0
L1D TOTAL     ACCESS:   49543950  HIT:   47186573  MISS:    2357377  HIT %:    95.2418  MISS %:    4.75815   MPKI: 11.7869
L1D LOAD      ACCESS:   30433752  HIT:   28756573  MISS:    1677179  HIT %:    94.4891  MISS %:    5.51092   MPKI: 8.38589
L1D RFO       ACCESS:   19110198  HIT:   18430000  MISS:     680198  HIT %:    96.4407  MISS %:    3.55935   MPKI: 3.40099
L1D PREFETCH  REQUESTED:          0  ISSUED:          0  USEFUL:          0  USELESS:          0
L1D USEFUL LOAD PREFETCHES:          0 PREFETCH ISSUED TO LOWER LEVEL:          0  ACCURACY: -nan
L1D TIMELY PREFETCHES:          0 LATE PREFETCHES: 0 DROPPED PREFETCHES: 0
L1D PREFETCHES SAME FILL-ORIGIN LEVEL: 0 DIFFERENT FILL-ORIGIN LEVEL: 0
L1D AVERAGE MISS LATENCY: 54.327 cycles
L1D RQ	ACCESS:   41974432	FORWARD:          0	MERGED:   11148652	TO_CACHE:   30556339
L1D WQ	ACCESS:   20245042	FORWARD:     269441	MERGED:     227238	TO_CACHE:   20017804

L1D UNIQUE REGIONS ACCESSED: 0
L1D REGIONS CONFLICTS: 0
L1D Cross Page Prefetch Requests: 0
L1D Same Page Prefetch Requests: 0
L1D ROI Sum of L1D PQ occupancy: 0
L1D PREFETCHES PUSHED FROM L2C: 0
L1I TOTAL     ACCESS:   38313032  HIT:   33574064  MISS:    4738968  HIT %:    87.6309  MISS %:    12.3691   MPKI: 23.6948
L1I LOAD      ACCESS:   38313032  HIT:   33574064  MISS:    4738968  HIT %:    87.6309  MISS %:    12.3691   MPKI: 23.6948
L1I PREFETCH  REQUESTED:          0  ISSUED:          0  USEFUL:          0  USELESS:          0
L1I USEFUL LOAD PREFETCHES:          0 PREFETCH ISSUED TO LOWER LEVEL:          0  ACCURACY: -nan
L1I TIMELY PREFETCHES:          0 LATE PREFETCHES: 0 DROPPED PREFETCHES: 0
L1I PREFETCHES SAME FILL-ORIGIN LEVEL: 0 DIFFERENT FILL-ORIGIN LEVEL: 0
L1I AVERAGE MISS LATENCY: 22.4065 cycles
L1I RQ	ACCESS:   60537201	FORWARD:          0	MERGED:   21431173	TO_CACHE:   39106028

BTB TOTAL     ACCESS:   31960684  HIT:   26197910  MISS:    5762774  HIT %:    81.9692  MISS %:    18.0308   MPKI: 28.8139
BTB BRANCH_DIRECT_JUMP	ACCESS:    3125250  HIT:    2730574  MISS:     394676
BTB BRANCH_INDIRECT	ACCESS:   11716382  HIT:    9367715  MISS:    2348667
BTB BRANCH_CONDITIONAL	ACCESS:   10786856  HIT:   10320288  MISS:     466568
BTB BRANCH_DIRECT_CALL	ACCESS:    2710252  HIT:    1976262  MISS:     733990
BTB BRANCH_INDIRECT_CALL	ACCESS:     455858  HIT:     278081  MISS:     177777
BTB BRANCH_RETURN	ACCESS:    3166086  HIT:    1524990  MISS:    1641096
BTB BRANCH_OTHER ACCESS:          0  HIT:          0  MISS:          0

L2C TOTAL     ACCESS:    8714776  HIT:    6170967  MISS:    2543809  HIT %:    70.8104  MISS %:    29.1896   MPKI: 12.719
L2C LOAD      ACCESS:    6416107  HIT:    4442150  MISS:    1973957  HIT %:    69.2344  MISS %:    30.7656   MPKI: 9.86978
L2C DATA LOAD MPKI: 3.6423
L2C INSTRUCTION LOAD MPKI: 6.22748
L2C RFO       ACCESS:     680184  HIT:     287644  MISS:     392540  HIT %:    42.2891  MISS %:    57.7109   MPKI: 1.9627
L2C PREFETCH  ACCESS:     237479  HIT:     231435  MISS:       6044  HIT %:    97.4549  MISS %:    2.54507   MPKI: 0.03022
AGUS PREFETCH L1 MISS: 0
L2C DATA PREFETCH MPKI: 0.03022
L2C INSTRUCTION PREFETCH MPKI: 0
L2C WRITEBACK ACCESS:    1222059  HIT:    1134482  MISS:      87577  HIT %:    92.8337  MISS %:    7.16635   MPKI: 0.437885
L2C LOAD TRANSLATION ACCESS:     158947  HIT:      75256  MISS:      83691  HIT %:    47.3466  MISS %:    52.6534   MPKI: 0.418455
L2C PREFETCH  REQUESTED:     691521  ISSUED:     691347  USEFUL:       5896  USELESS:        151
L2C USEFUL LOAD PREFETCHES:       5896 PREFETCH ISSUED TO LOWER LEVEL:     388403  ACCURACY: 1.51801
L2C TIMELY PREFETCHES:       5896 LATE PREFETCHES: 2362 DROPPED PREFETCHES: 0
L2C PREFETCHES SAME FILL-ORIGIN LEVEL: 8406 DIFFERENT FILL-ORIGIN LEVEL: 379997
L2C AVERAGE MISS LATENCY: 53.8128 cycles
L2C RQ	ACCESS:    7255292	FORWARD:          0	MERGED:          0	TO_CACHE:    7255238
L2C WQ	ACCESS:    1222059	FORWARD:         55	MERGED:          0	TO_CACHE:    1222059
L2C PQ	ACCESS:     691347	FORWARD:          0	MERGED:      49556	TO_CACHE:     641790

L2C Instructions Evicting Data 560286
L2C Translations Evicting Data 44185
L2C Data Evicting Data 566881
L2C Instructions Evicting Instructions 648917
L2C Translations Evicting Instructions 36348
L2C Data Evicting Instructions 518405
L2C Instructions Evicting Translations 36293
L2C Translations Evicting Translations 3158
L2C Data Evicting Translations 41759
L2C Dense regions hint from L2: 0
PSCL5 TOTAL     ACCESS:     101118  HIT:     101118  MISS:          0  HIT %:        100  MISS %:          0   MPKI: 0
PSCL5 LOAD TRANSLATION ACCESS:     101118  HIT:     101118  MISS:          0  HIT %:        100  MISS %:          0   MPKI: 0
PSCL5 PREFETCH  REQUESTED:          0  ISSUED:          0  USEFUL:          0  USELESS:          0
PSCL5 USEFUL LOAD PREFETCHES:          0 PREFETCH ISSUED TO LOWER LEVEL:          0  ACCURACY: -nan
PSCL5 TIMELY PREFETCHES:          0 LATE PREFETCHES: 0 DROPPED PREFETCHES: 0
PSCL5 PREFETCHES SAME FILL-ORIGIN LEVEL: 0 DIFFERENT FILL-ORIGIN LEVEL: 0

PSCL4 TOTAL     ACCESS:     100488  HIT:     100173  MISS:        315  HIT %:    99.6865  MISS %:    0.31347   MPKI: 0.001575
PSCL4 LOAD TRANSLATION ACCESS:     100488  HIT:     100173  MISS:        315  HIT %:    99.6865  MISS %:    0.31347   MPKI: 0.001575
PSCL4 PREFETCH  REQUESTED:          0  ISSUED:          0  USEFUL:          0  USELESS:          0
PSCL4 USEFUL LOAD PREFETCHES:          0 PREFETCH ISSUED TO LOWER LEVEL:          0  ACCURACY: -nan
PSCL4 TIMELY PREFETCHES:          0 LATE PREFETCHES: 0 DROPPED PREFETCHES: 0
PSCL4 PREFETCHES SAME FILL-ORIGIN LEVEL: 0 DIFFERENT FILL-ORIGIN LEVEL: 0

PSCL3 TOTAL     ACCESS:      93593  HIT:      77414  MISS:      16179  HIT %:    82.7135  MISS %:    17.2865   MPKI: 0.080895
PSCL3 LOAD TRANSLATION ACCESS:      93593  HIT:      77414  MISS:      16179  HIT %:    82.7135  MISS %:    17.2865   MPKI: 0.080895
PSCL3 PREFETCH  REQUESTED:          0  ISSUED:          0  USEFUL:          0  USELESS:          0
PSCL3 USEFUL LOAD PREFETCHES:          0 PREFETCH ISSUED TO LOWER LEVEL:          0  ACCURACY: -nan
PSCL3 TIMELY PREFETCHES:          0 LATE PREFETCHES: 0 DROPPED PREFETCHES: 0
PSCL3 PREFETCHES SAME FILL-ORIGIN LEVEL: 0 DIFFERENT FILL-ORIGIN LEVEL: 0

PSCL2 TOTAL     ACCESS:     101118  HIT:      59783  MISS:      41335  HIT %:     59.122  MISS %:     40.878   MPKI: 0.206675
PSCL2 LOAD TRANSLATION ACCESS:     101118  HIT:      59783  MISS:      41335  HIT %:     59.122  MISS %:     40.878   MPKI: 0.206675
PSCL2 PREFETCH  REQUESTED:          0  ISSUED:          0  USEFUL:          0  USELESS:          0
PSCL2 USEFUL LOAD PREFETCHES:          0 PREFETCH ISSUED TO LOWER LEVEL:          0  ACCURACY: -nan
PSCL2 TIMELY PREFETCHES:          0 LATE PREFETCHES: 0 DROPPED PREFETCHES: 0
PSCL2 PREFETCHES SAME FILL-ORIGIN LEVEL: 0 DIFFERENT FILL-ORIGIN LEVEL: 0

LLC TOTAL     ACCESS:    3446347  HIT:    3034274  MISS:     412073  HIT %:    88.0432  MISS %:    11.9568   MPKI: 2.06036
LLC LOAD      ACCESS:    1971595  HIT:    1796606  MISS:     174989  HIT %:    91.1245  MISS %:     8.8755   MPKI: 0.874945
LLC RFO       ACCESS:     392540  HIT:     249974  MISS:     142566  HIT %:    63.6812  MISS %:    36.3188   MPKI: 0.71283
LLC PREFETCH  ACCESS:     359606  HIT:     279721  MISS:      79885  HIT %:    77.7854  MISS %:    22.2146   MPKI: 0.399425
AGUS PREFETCH L1 MISS: 0
LLC WRITEBACK ACCESS:     638915  HIT:     635999  MISS:       2916  HIT %:    99.5436  MISS %:   0.456399   MPKI: 0.01458
LLC LOAD TRANSLATION ACCESS:      83691  HIT:      71974  MISS:      11717  HIT %:    85.9997  MISS %:    14.0003   MPKI: 0.058585
LLC PREFETCH  REQUESTED:          0  ISSUED:          0  USEFUL:      21806  USELESS:      57656
LLC USEFUL LOAD PREFETCHES:      21806 PREFETCH ISSUED TO LOWER LEVEL:      88635  ACCURACY: 24.602
LLC TIMELY PREFETCHES:      21806 LATE PREFETCHES: 8750 DROPPED PREFETCHES: 0
LLC PREFETCHES SAME FILL-ORIGIN LEVEL: 88404 DIFFERENT FILL-ORIGIN LEVEL: 0
LLC AVERAGE MISS LATENCY: 188.101 cycles
LLC RQ	ACCESS:    2447826	FORWARD:          0	MERGED:          0	TO_CACHE:    2447826
LLC WQ	ACCESS:     638915	FORWARD:          0	MERGED:          0	TO_CACHE:     638915
LLC PQ	ACCESS:     388403	FORWARD:          0	MERGED:       5823	TO_CACHE:     382580

LLC Dense regions hint to LLC: 0

RAW hits: 2049293
Loads Generated: 44023727
Loads sent to L1D: 41974432
Stores Generated: 20245026
Stores sent to L1D: 20245042
Major fault: 0 Minor fault: 5392
Allocated PAGES: 5392
 All Calls: 2095417
 Critical Calls: 2095417
------------------
Depth Distribution
------------------
depth 0: 0
depth 1: 627710
depth 2: 50089
depth 3: 36106
depth 4: 32684
depth 5: 30027
depth 6: 27980
depth 7: 24979
depth 8: 19053
depth 9: 13534
depth 10: 6621
depth 11: 2752
depth 12: 471
depth 13: 21
depth 14: 0
depth 15: 0
depth 16: 0
depth 17: 0
depth 18: 0
depth 19: 0
depth 20: 0
depth 21: 0
depth 22: 0
depth 23: 0
depth 24: 0
depth 25: 0
depth 26: 0
depth 27: 0
depth 28: 0
depth 29: 0
Total: 872027
-----------------------------
-----------------------------
	Captured at Filter
-----------------------------
depth 0: 0
depth 1: 1489
depth 2: 172
depth 3: 143
depth 4: 131
depth 5: 101
depth 6: 90
depth 7: 77
depth 8: 59
depth 9: 42
depth 10: 24
depth 11: 14
depth 12: 1
depth 13: 0
depth 14: 0
depth 15: 0
depth 16: 0
depth 17: 0
depth 18: 0
depth 19: 0
depth 20: 0
depth 21: 0
depth 22: 0
depth 23: 0
depth 24: 0
depth 25: 0
depth 26: 0
depth 27: 0
depth 28: 0
depth 29: 0
-----------------------------
-----------------------------
		Lost at Page
-----------------------------
depth 0: 0
depth 1: 109024
depth 2: 2549
depth 3: 2022
depth 4: 2324
depth 5: 2635
depth 6: 2980
depth 7: 3225
depth 8: 2930
depth 9: 2417
depth 10: 1387
depth 11: 665
depth 12: 135
depth 13: 7
depth 14: 0
depth 15: 0
depth 16: 0
depth 17: 0
depth 18: 0
depth 19: 0
depth 20: 0
depth 21: 0
depth 22: 0
depth 23: 0
depth 24: 0
depth 25: 0
depth 26: 0
depth 27: 0
depth 28: 0
depth 29: 0
-----------------------------
-----------------------------
	Lost due to PQ Size
-----------------------------
1642
-----------------------------
ST read accesses: 1373670
ST write accesses: 303469
PT read accesses: 17182843
PT write accesses: 1769449
FILTER read accesses: 4914343
FILTER write accesses: 2598111
GHR read accesses: 3282664
GHR write accesses: 113004
GHR counter read accesses: 13190818
GHR counter write accesses: 1709544
ST tag read accesses: 799670130
ST tag write accesses: 120561894

DRAM Statistics
 CHANNEL 0
 RQ ROW_BUFFER_HIT:      94249  ROW_BUFFER_MISS:     314898
 DBUS_CONGESTED:        210
 WQ ROW_BUFFER_HIT:      33857  ROW_BUFFER_MISS:     208940  FULL:          0

 AVG_CONGESTED_CYCLE: 4
 All warmup complete: 2
Channel 0 Bank busy for read cycles: 0
Channel 0 Bank busy for write cycles: 0
Channel 0
Rank 0
0banks busy for read cycles: 400956338
0banks busy for write cycles: 110316
1banks busy for read cycles: 25657693
1banks busy for write cycles: 15091072
2banks busy for read cycles: 5943653
2banks busy for write cycles: 4409055
3banks busy for read cycles: 1649030
3banks busy for write cycles: 1686080
4banks busy for read cycles: 404342
4banks busy for write cycles: 731509
5banks busy for read cycles: 150194
5banks busy for write cycles: 329064
6banks busy for read cycles: 129730
6banks busy for write cycles: 175691
7banks busy for read cycles: 170479
7banks busy for write cycles: 176182
8banks busy for read cycles: 670170
8banks busy for write cycles: 985820

CPU 0 Branch Prediction Accuracy: 99.5917% MPKI: 0.749205 Average ROB Occupancy at Mispredict: 29.2767
Branch types
NOT_BRANCH: 163297289 81.6486%
BRANCH_DIRECT_JUMP: 3125250 1.56262%
BRANCH_INDIRECT: 11716382 5.85819%
BRANCH_CONDITIONAL: 15528542 7.76427%
BRANCH_DIRECT_CALL: 2710252 1.35513%
BRANCH_INDIRECT_CALL: 455858 0.227929%
BRANCH_RETURN: 3166086 1.58304%
BRANCH_OTHER: 0 0%

DRAM PAGES: 1048576
Allocated PAGES: 5392
