Initialize SIGNATURE TABLE
ST_SET: 1
ST_WAY: 256
ST_TAG_BIT: 16
ST_TAG_MASK: ffff

Initialize PATTERN TABLE
PT_SET: 512
PT_WAY: 4
SIG_DELTA_BIT: 7
C_SIG_BIT: 4
C_DELTA_BIT: 4

Initialize PREFETCH FILTER
FILTER_SET: 1024

*** ChampSim Multicore Out-of-Order Simulator ***

Warmup Instructions: 50000000
Simulation Instructions: 200000000
Number of CPUs: 1
LLC sets: 2048
LLC ways: 16
Off-chip DRAM Size: 4096 MB Channels: 1 Width: 64-bit Data Rate: 6400 MT/s
CPU 0 runs traces/spec2k17/srv_34.champsimtrace.xz
.xz
BTB has LRU replacement policy
ITLB has LRU replacement policy
DTLB has LRU replacement policy
STLB has LRU replacement policy
L1I has LRU replacement policy
L1D has LRU replacement policy
ST_WAYS: 256
PT_SETS: 512
Initialize SRRIP state for L2C
Initialize DRRIP state for LLC
Heartbeat CPU 0 instructions: 10000001 cycles: 2937172 heartbeat IPC: 3.40464 cumulative IPC: 3.40464 (Simulation time: 0 hr 0 min 37 sec) 
Heartbeat CPU 0 instructions: 20000002 cycles: 5879985 heartbeat IPC: 3.39811 cumulative IPC: 3.40137 (Simulation time: 0 hr 1 min 16 sec) 
Heartbeat CPU 0 instructions: 30000001 cycles: 8813726 heartbeat IPC: 3.40862 cumulative IPC: 3.40378 (Simulation time: 0 hr 1 min 55 sec) 
*** Reached end of trace for Core: 0 Repeating trace: traces/spec2k17/srv_34.champsimtrace.xz
Heartbeat CPU 0 instructions: 40000001 cycles: 11751348 heartbeat IPC: 3.40411 cumulative IPC: 3.40386 (Simulation time: 0 hr 2 min 34 sec) 
Heartbeat CPU 0 instructions: 50000003 cycles: 14692238 heartbeat IPC: 3.40033 cumulative IPC: 3.40316 (Simulation time: 0 hr 3 min 14 sec) 

Warmup complete CPU 0 instructions: 50000003 cycles: 14692238 (Simulation time: 0 hr 3 min 14 sec) 

Heartbeat CPU 0 instructions: 60000001 cycles: 34226920 heartbeat IPC: 0.51191 cumulative IPC: 0.51191 (Simulation time: 0 hr 4 min 23 sec) 
*** Reached end of trace for Core: 0 Repeating trace: traces/spec2k17/srv_34.champsimtrace.xz
Heartbeat CPU 0 instructions: 70000001 cycles: 53379747 heartbeat IPC: 0.522116 cumulative IPC: 0.516963 (Simulation time: 0 hr 5 min 28 sec) 
Heartbeat CPU 0 instructions: 80000003 cycles: 72697833 heartbeat IPC: 0.51765 cumulative IPC: 0.517191 (Simulation time: 0 hr 6 min 37 sec) 
Heartbeat CPU 0 instructions: 90000002 cycles: 91934407 heartbeat IPC: 0.519843 cumulative IPC: 0.517852 (Simulation time: 0 hr 7 min 47 sec) 
*** Reached end of trace for Core: 0 Repeating trace: traces/spec2k17/srv_34.champsimtrace.xz
Heartbeat CPU 0 instructions: 100000000 cycles: 111095229 heartbeat IPC: 0.521898 cumulative IPC: 0.518656 (Simulation time: 0 hr 8 min 53 sec) 
Heartbeat CPU 0 instructions: 110000000 cycles: 130404437 heartbeat IPC: 0.517888 cumulative IPC: 0.518528 (Simulation time: 0 hr 10 min 0 sec) 
Heartbeat CPU 0 instructions: 120000000 cycles: 149586661 heartbeat IPC: 0.521316 cumulative IPC: 0.518924 (Simulation time: 0 hr 11 min 7 sec) 
*** Reached end of trace for Core: 0 Repeating trace: traces/spec2k17/srv_34.champsimtrace.xz
Heartbeat CPU 0 instructions: 130000002 cycles: 168764094 heartbeat IPC: 0.521446 cumulative IPC: 0.519238 (Simulation time: 0 hr 12 min 13 sec) 
Heartbeat CPU 0 instructions: 140000001 cycles: 187971169 heartbeat IPC: 0.520641 cumulative IPC: 0.519394 (Simulation time: 0 hr 13 min 19 sec) 
Heartbeat CPU 0 instructions: 150000001 cycles: 207184436 heartbeat IPC: 0.520474 cumulative IPC: 0.519502 (Simulation time: 0 hr 14 min 29 sec) 
Heartbeat CPU 0 instructions: 160000000 cycles: 226351276 heartbeat IPC: 0.521734 cumulative IPC: 0.519704 (Simulation time: 0 hr 15 min 35 sec) 
*** Reached end of trace for Core: 0 Repeating trace: traces/spec2k17/srv_34.champsimtrace.xz
Heartbeat CPU 0 instructions: 170000000 cycles: 245562697 heartbeat IPC: 0.520524 cumulative IPC: 0.519772 (Simulation time: 0 hr 16 min 40 sec) 
Heartbeat CPU 0 instructions: 180000000 cycles: 264833509 heartbeat IPC: 0.518919 cumulative IPC: 0.519706 (Simulation time: 0 hr 17 min 44 sec) 
Heartbeat CPU 0 instructions: 190000000 cycles: 284069332 heartbeat IPC: 0.519863 cumulative IPC: 0.519718 (Simulation time: 0 hr 18 min 52 sec) 
*** Reached end of trace for Core: 0 Repeating trace: traces/spec2k17/srv_34.champsimtrace.xz
Heartbeat CPU 0 instructions: 200000000 cycles: 303182389 heartbeat IPC: 0.523203 cumulative IPC: 0.519948 (Simulation time: 0 hr 20 min 3 sec) 
Heartbeat CPU 0 instructions: 210000000 cycles: 322468186 heartbeat IPC: 0.518516 cumulative IPC: 0.519859 (Simulation time: 0 hr 21 min 11 sec) 
Heartbeat CPU 0 instructions: 220000000 cycles: 341573865 heartbeat IPC: 0.523405 cumulative IPC: 0.520066 (Simulation time: 0 hr 22 min 18 sec) 
*** Reached end of trace for Core: 0 Repeating trace: traces/spec2k17/srv_34.champsimtrace.xz
Heartbeat CPU 0 instructions: 230000003 cycles: 360731018 heartbeat IPC: 0.521998 cumulative IPC: 0.520173 (Simulation time: 0 hr 23 min 27 sec) 
Heartbeat CPU 0 instructions: 240000000 cycles: 380005945 heartbeat IPC: 0.518809 cumulative IPC: 0.520101 (Simulation time: 0 hr 24 min 35 sec) 
Heartbeat CPU 0 instructions: 250000001 cycles: 399149217 heartbeat IPC: 0.522377 cumulative IPC: 0.520214 (Simulation time: 0 hr 25 min 42 sec) 
Finished CPU 0 instructions: 200000000 cycles: 384456980 cumulative IPC: 0.520214 (Simulation time: 0 hr 25 min 42 sec) 

ChampSim completed all CPUs

Region of Interest Statistics

CPU 0 cumulative IPC: 0.520214 instructions: 200000000 cycles: 384456980
ITLB TOTAL     ACCESS:   33737420  HIT:   32195265  MISS:    1542155  HIT %:    95.4289  MISS %:    4.57105   MPKI: 7.71077
ITLB LOAD TRANSLATION ACCESS:   33737420  HIT:   32195265  MISS:    1542155  HIT %:    95.4289  MISS %:    4.57105   MPKI: 7.71077
ITLB PREFETCH  REQUESTED:          0  ISSUED:          0  USEFUL:          0  USELESS:          0
ITLB USEFUL LOAD PREFETCHES:          0 PREFETCH ISSUED TO LOWER LEVEL:          0  ACCURACY: -nan
ITLB TIMELY PREFETCHES:          0 LATE PREFETCHES: 0 DROPPED PREFETCHES: 0
ITLB PREFETCHES SAME FILL-ORIGIN LEVEL: 0 DIFFERENT FILL-ORIGIN LEVEL: 0
ITLB AVERAGE MISS LATENCY: 9.21983 cycles
ITLB RQ	ACCESS:   40652100	FORWARD:          0	MERGED:    6420048	TO_CACHE:   34232052

DTLB TOTAL     ACCESS:   39889353  HIT:   38379091  MISS:    1510262  HIT %:    96.2139  MISS %:    3.78613   MPKI: 7.55131
DTLB LOAD TRANSLATION ACCESS:   39889353  HIT:   38379091  MISS:    1510262  HIT %:    96.2139  MISS %:    3.78613   MPKI: 7.55131
DTLB PREFETCH  REQUESTED:          0  ISSUED:          0  USEFUL:          0  USELESS:          0
DTLB USEFUL LOAD PREFETCHES:          0 PREFETCH ISSUED TO LOWER LEVEL:          0  ACCURACY: -nan
DTLB TIMELY PREFETCHES:          0 LATE PREFETCHES: 0 DROPPED PREFETCHES: 0
DTLB PREFETCHES SAME FILL-ORIGIN LEVEL: 0 DIFFERENT FILL-ORIGIN LEVEL: 0
DTLB AVERAGE MISS LATENCY: 15.8889 cycles
DTLB RQ	ACCESS:   61068879	FORWARD:          0	MERGED:   20770938	TO_CACHE:   40297941

STLB TOTAL     ACCESS:    3052417  HIT:    2976170  MISS:      76247  HIT %:    97.5021  MISS %:    2.49792   MPKI: 0.381235
STLB LOAD TRANSLATION ACCESS:    3052417  HIT:    2976170  MISS:      76247  HIT %:    97.5021  MISS %:    2.49792   MPKI: 0.381235
STLB PREFETCH  REQUESTED:          0  ISSUED:          0  USEFUL:          0  USELESS:          0
STLB USEFUL LOAD PREFETCHES:          0 PREFETCH ISSUED TO LOWER LEVEL:          0  ACCURACY: -nan
STLB TIMELY PREFETCHES:          0 LATE PREFETCHES: 0 DROPPED PREFETCHES: 0
STLB PREFETCHES SAME FILL-ORIGIN LEVEL: 0 DIFFERENT FILL-ORIGIN LEVEL: 0
STLB AVERAGE MISS LATENCY: 140.576 cycles
STLB RQ	ACCESS:    3052417	FORWARD:          0	MERGED:          0	TO_CACHE:    3052417

STLB Hit, L1D data hit: 0
STLB Hit, L2C data hit: 0
STLB Hit, LLC data hit: 0
STLB Hit, LLC data miss: 0
STLB STLB hints to L2: 0
L1D TOTAL     ACCESS:   48531020  HIT:   41782709  MISS:    6748311  HIT %:    86.0949  MISS %:    13.9051   MPKI: 33.7416
L1D LOAD      ACCESS:   26610446  HIT:   23545136  MISS:    3065310  HIT %:    88.4808  MISS %:    11.5192   MPKI: 15.3265
L1D RFO       ACCESS:   21920574  HIT:   18237573  MISS:    3683001  HIT %:    83.1984  MISS %:    16.8016   MPKI: 18.415
L1D PREFETCH  REQUESTED:          0  ISSUED:          0  USEFUL:          0  USELESS:          0
L1D USEFUL LOAD PREFETCHES:          0 PREFETCH ISSUED TO LOWER LEVEL:          0  ACCURACY: -nan
L1D TIMELY PREFETCHES:          0 LATE PREFETCHES: 0 DROPPED PREFETCHES: 0
L1D PREFETCHES SAME FILL-ORIGIN LEVEL: 0 DIFFERENT FILL-ORIGIN LEVEL: 0
L1D AVERAGE MISS LATENCY: 167.02 cycles
L1D RQ	ACCESS:   45207240	FORWARD:          0	MERGED:   17829994	TO_CACHE:   27100029
L1D WQ	ACCESS:   34174261	FORWARD:     277217	MERGED:     205411	TO_CACHE:   33968850

L1D UNIQUE REGIONS ACCESSED: 0
L1D REGIONS CONFLICTS: 0
L1D Cross Page Prefetch Requests: 0
L1D Same Page Prefetch Requests: 0
L1D ROI Sum of L1D PQ occupancy: 0
L1D PREFETCHES PUSHED FROM L2C: 0
L1I TOTAL     ACCESS:   37985408  HIT:   28855717  MISS:    9129691  HIT %:    75.9653  MISS %:    24.0347   MPKI: 45.6485
L1I LOAD      ACCESS:   37985408  HIT:   28855717  MISS:    9129691  HIT %:    75.9653  MISS %:    24.0347   MPKI: 45.6485
L1I PREFETCH  REQUESTED:          0  ISSUED:          0  USEFUL:          0  USELESS:          0
L1I USEFUL LOAD PREFETCHES:          0 PREFETCH ISSUED TO LOWER LEVEL:          0  ACCURACY: -nan
L1I TIMELY PREFETCHES:          0 LATE PREFETCHES: 0 DROPPED PREFETCHES: 0
L1I PREFETCHES SAME FILL-ORIGIN LEVEL: 0 DIFFERENT FILL-ORIGIN LEVEL: 0
L1I AVERAGE MISS LATENCY: 16.8389 cycles
L1I RQ	ACCESS:   58866111	FORWARD:          0	MERGED:   18214011	TO_CACHE:   40652100

BTB TOTAL     ACCESS:   25683983  HIT:   24137267  MISS:    1546716  HIT %:    93.9779  MISS %:     6.0221   MPKI: 7.73358
BTB BRANCH_DIRECT_JUMP	ACCESS:    1661224  HIT:    1651564  MISS:       9660
BTB BRANCH_INDIRECT	ACCESS:    9989440  HIT:    9473851  MISS:     515589
BTB BRANCH_CONDITIONAL	ACCESS:    7185443  HIT:    7172058  MISS:      13385
BTB BRANCH_DIRECT_CALL	ACCESS:    2827619  HIT:    2794301  MISS:      33318
BTB BRANCH_INDIRECT_CALL	ACCESS:     596257  HIT:     484762  MISS:     111495
BTB BRANCH_RETURN	ACCESS:    3424000  HIT:    2560731  MISS:     863269
BTB BRANCH_OTHER ACCESS:          0  HIT:          0  MISS:          0

L2C TOTAL     ACCESS:   21702005  HIT:   15124596  MISS:    6577409  HIT %:    69.6922  MISS %:    30.3078   MPKI: 32.887
L2C LOAD      ACCESS:   12194758  HIT:    9439780  MISS:    2754978  HIT %:    77.4085  MISS %:    22.5915   MPKI: 13.7749
L2C DATA LOAD MPKI: 11.0099
L2C INSTRUCTION LOAD MPKI: 2.76503
L2C RFO       ACCESS:    3683001  HIT:     168433  MISS:    3514568  HIT %:    4.57325  MISS %:    95.4267   MPKI: 17.5728
L2C PREFETCH  ACCESS:    1402184  HIT:    1278606  MISS:     123578  HIT %:    91.1867  MISS %:    8.81325   MPKI: 0.61789
AGUS PREFETCH L1 MISS: 0
L2C DATA PREFETCH MPKI: 0.61789
L2C INSTRUCTION PREFETCH MPKI: 0
L2C WRITEBACK ACCESS:    4335713  HIT:    4191898  MISS:     143815  HIT %:     96.683  MISS %:    3.31699   MPKI: 0.719075
L2C LOAD TRANSLATION ACCESS:      86349  HIT:      45879  MISS:      40470  HIT %:    53.1321  MISS %:    46.8679   MPKI: 0.20235
L2C PREFETCH  REQUESTED:   11181857  ISSUED:   11181635  USEFUL:     108864  USELESS:      14715
L2C USEFUL LOAD PREFETCHES:     108864 PREFETCH ISSUED TO LOWER LEVEL:    5421742  ACCURACY: 2.00792
L2C TIMELY PREFETCHES:     108864 LATE PREFETCHES: 293856 DROPPED PREFETCHES: 0
L2C PREFETCHES SAME FILL-ORIGIN LEVEL: 417434 DIFFERENT FILL-ORIGIN LEVEL: 5004308
L2C AVERAGE MISS LATENCY: 162.864 cycles
L2C RQ	ACCESS:   15964367	FORWARD:          0	MERGED:          0	TO_CACHE:   15964124
L2C WQ	ACCESS:    4335713	FORWARD:        244	MERGED:          0	TO_CACHE:    4335713
L2C PQ	ACCESS:   11181635	FORWARD:          0	MERGED:    3871158	TO_CACHE:    7310476

L2C Instructions Evicting Data 510610
L2C Translations Evicting Data 36719
L2C Data Evicting Data 5305904
L2C Instructions Evicting Instructions 38714
L2C Translations Evicting Instructions 3590
L2C Data Evicting Instructions 498216
L2C Instructions Evicting Translations 3681
L2C Translations Evicting Translations 161
L2C Data Evicting Translations 35999
L2C Dense regions hint from L2: 0
PSCL5 TOTAL     ACCESS:      76247  HIT:      76247  MISS:          0  HIT %:        100  MISS %:          0   MPKI: 0
PSCL5 LOAD TRANSLATION ACCESS:      76247  HIT:      76247  MISS:          0  HIT %:        100  MISS %:          0   MPKI: 0
PSCL5 PREFETCH  REQUESTED:          0  ISSUED:          0  USEFUL:          0  USELESS:          0
PSCL5 USEFUL LOAD PREFETCHES:          0 PREFETCH ISSUED TO LOWER LEVEL:          0  ACCURACY: -nan
PSCL5 TIMELY PREFETCHES:          0 LATE PREFETCHES: 0 DROPPED PREFETCHES: 0
PSCL5 PREFETCHES SAME FILL-ORIGIN LEVEL: 0 DIFFERENT FILL-ORIGIN LEVEL: 0

PSCL4 TOTAL     ACCESS:      65597  HIT:      65490  MISS:        107  HIT %:    99.8369  MISS %:   0.163117   MPKI: 0.000535
PSCL4 LOAD TRANSLATION ACCESS:      65597  HIT:      65490  MISS:        107  HIT %:    99.8369  MISS %:   0.163117   MPKI: 0.000535
PSCL4 PREFETCH  REQUESTED:          0  ISSUED:          0  USEFUL:          0  USELESS:          0
PSCL4 USEFUL LOAD PREFETCHES:          0 PREFETCH ISSUED TO LOWER LEVEL:          0  ACCURACY: -nan
PSCL4 TIMELY PREFETCHES:          0 LATE PREFETCHES: 0 DROPPED PREFETCHES: 0
PSCL4 PREFETCHES SAME FILL-ORIGIN LEVEL: 0 DIFFERENT FILL-ORIGIN LEVEL: 0

PSCL3 TOTAL     ACCESS:      76174  HIT:      75958  MISS:        216  HIT %:    99.7164  MISS %:   0.283561   MPKI: 0.00108
PSCL3 LOAD TRANSLATION ACCESS:      76174  HIT:      75958  MISS:        216  HIT %:    99.7164  MISS %:   0.283561   MPKI: 0.00108
PSCL3 PREFETCH  REQUESTED:          0  ISSUED:          0  USEFUL:          0  USELESS:          0
PSCL3 USEFUL LOAD PREFETCHES:          0 PREFETCH ISSUED TO LOWER LEVEL:          0  ACCURACY: -nan
PSCL3 TIMELY PREFETCHES:          0 LATE PREFETCHES: 0 DROPPED PREFETCHES: 0
PSCL3 PREFETCHES SAME FILL-ORIGIN LEVEL: 0 DIFFERENT FILL-ORIGIN LEVEL: 0

PSCL2 TOTAL     ACCESS:      76247  HIT:      66468  MISS:       9779  HIT %:    87.1746  MISS %:    12.8254   MPKI: 0.048895
PSCL2 LOAD TRANSLATION ACCESS:      76247  HIT:      66468  MISS:       9779  HIT %:    87.1746  MISS %:    12.8254   MPKI: 0.048895
PSCL2 PREFETCH  REQUESTED:          0  ISSUED:          0  USEFUL:          0  USELESS:          0
PSCL2 USEFUL LOAD PREFETCHES:          0 PREFETCH ISSUED TO LOWER LEVEL:          0  ACCURACY: -nan
PSCL2 TIMELY PREFETCHES:          0 LATE PREFETCHES: 0 DROPPED PREFETCHES: 0
PSCL2 PREFETCHES SAME FILL-ORIGIN LEVEL: 0 DIFFERENT FILL-ORIGIN LEVEL: 0

LLC TOTAL     ACCESS:   13435980  HIT:    6416537  MISS:    7019443  HIT %:    47.7564  MISS %:    52.2436   MPKI: 35.0972
LLC LOAD      ACCESS:    2461133  HIT:    1985539  MISS:     475594  HIT %:    80.6758  MISS %:    19.3242   MPKI: 2.37797
LLC RFO       ACCESS:    3514532  HIT:     642481  MISS:    2872051  HIT %:    18.2807  MISS %:    81.7193   MPKI: 14.3603
LLC PREFETCH  ACCESS:    3405205  HIT:    2546787  MISS:     858418  HIT %:     74.791  MISS %:     25.209   MPKI: 4.29209
AGUS PREFETCH L1 MISS: 0
LLC WRITEBACK ACCESS:    4014640  HIT:    1236476  MISS:    2778164  HIT %:    30.7992  MISS %:    69.2008   MPKI: 13.8908
LLC LOAD TRANSLATION ACCESS:      40470  HIT:       5254  MISS:      35216  HIT %:    12.9825  MISS %:    87.0175   MPKI: 0.17608
LLC PREFETCH  REQUESTED:          0  ISSUED:          0  USEFUL:     355394  USELESS:     505707
LLC USEFUL LOAD PREFETCHES:     355394 PREFETCH ISSUED TO LOWER LEVEL:    1062490  ACCURACY: 33.4492
LLC TIMELY PREFETCHES:     355394 LATE PREFETCHES: 204072 DROPPED PREFETCHES: 0
LLC PREFETCHES SAME FILL-ORIGIN LEVEL: 1048713 DIFFERENT FILL-ORIGIN LEVEL: 0
LLC AVERAGE MISS LATENCY: 149.998 cycles
LLC RQ	ACCESS:    6016175	FORWARD:          0	MERGED:          0	TO_CACHE:    6016149
LLC WQ	ACCESS:    4014640	FORWARD:         27	MERGED:          0	TO_CACHE:    4014640
LLC PQ	ACCESS:    5421742	FORWARD:          0	MERGED:     891206	TO_CACHE:    4530535

LLC Dense regions hint to LLC: 0

RAW hits: 2537801
Loads Generated: 47745046
Loads sent to L1D: 45207240
Stores Generated: 34174248
Stores sent to L1D: 34174261
Major fault: 0 Minor fault: 8817
Allocated PAGES: 8817
 All Calls: 3833687
 Critical Calls: 3833687
------------------
Depth Distribution
------------------
depth 0: 0
depth 1: 3305959
depth 2: 1966636
depth 3: 1645821
depth 4: 1494221
depth 5: 1400950
depth 6: 1326427
depth 7: 1229703
depth 8: 898829
depth 9: 638341
depth 10: 162270
depth 11: 17969
depth 12: 38
depth 13: 0
depth 14: 0
depth 15: 0
depth 16: 0
depth 17: 0
depth 18: 0
depth 19: 0
depth 20: 0
depth 21: 0
depth 22: 0
depth 23: 0
depth 24: 0
depth 25: 0
depth 26: 0
depth 27: 0
depth 28: 0
depth 29: 0
Total: 14087164
-----------------------------
-----------------------------
	Captured at Filter
-----------------------------
depth 0: 0
depth 1: 12434
depth 2: 5736
depth 3: 3985
depth 4: 3174
depth 5: 3462
depth 6: 4346
depth 7: 4862
depth 8: 4316
depth 9: 3545
depth 10: 832
depth 11: 61
depth 12: 0
depth 13: 0
depth 14: 0
depth 15: 0
depth 16: 0
depth 17: 0
depth 18: 0
depth 19: 0
depth 20: 0
depth 21: 0
depth 22: 0
depth 23: 0
depth 24: 0
depth 25: 0
depth 26: 0
depth 27: 0
depth 28: 0
depth 29: 0
-----------------------------
-----------------------------
		Lost at Page
-----------------------------
depth 0: 0
depth 1: 151262
depth 2: 72042
depth 3: 66800
depth 4: 81265
depth 5: 100498
depth 6: 125747
depth 7: 149490
depth 8: 133254
depth 9: 112698
depth 10: 33891
depth 11: 4304
depth 12: 10
depth 13: 0
depth 14: 0
depth 15: 0
depth 16: 0
depth 17: 0
depth 18: 0
depth 19: 0
depth 20: 0
depth 21: 0
depth 22: 0
depth 23: 0
depth 24: 0
depth 25: 0
depth 26: 0
depth 27: 0
depth 28: 0
depth 29: 0
-----------------------------
-----------------------------
	Lost due to PQ Size
-----------------------------
2221
-----------------------------
ST read accesses: 2897753
ST write accesses: 167314
PT read accesses: 81447810
PT write accesses: 4014702
FILTER read accesses: 20861606
FILTER write accesses: 8217707
GHR read accesses: 6397268
GHR write accesses: 821308
GHR counter read accesses: 65974198
GHR counter write accesses: 4692020
ST tag read accesses: 1262596559
ST tag write accesses: 83739233

DRAM Statistics
 CHANNEL 0
 RQ ROW_BUFFER_HIT:    2049855  ROW_BUFFER_MISS:    2190996
 DBUS_CONGESTED:       1979
 WQ ROW_BUFFER_HIT:     620990  ROW_BUFFER_MISS:    2412145  FULL:      54346

 AVG_CONGESTED_CYCLE: 3
 All warmup complete: 2
Channel 0 Bank busy for read cycles: 0
Channel 0 Bank busy for write cycles: 0
Channel 0
Rank 0
0banks busy for read cycles: 144668178
0banks busy for write cycles: 253688
1banks busy for read cycles: 42083584
1banks busy for write cycles: 33749284
2banks busy for read cycles: 18526136
2banks busy for write cycles: 16326620
3banks busy for read cycles: 15869574
3banks busy for write cycles: 8967934
4banks busy for read cycles: 5486518
4banks busy for write cycles: 5823053
5banks busy for read cycles: 4737761
5banks busy for write cycles: 4303888
6banks busy for read cycles: 5373628
6banks busy for write cycles: 3817019
7banks busy for read cycles: 7581673
7banks busy for write cycles: 6461640
8banks busy for read cycles: 23267109
8banks busy for write cycles: 37159694

CPU 0 Branch Prediction Accuracy: 99.9482% MPKI: 0.079205 Average ROB Occupancy at Mispredict: 116.202
Branch types
NOT_BRANCH: 169447800 84.7239%
BRANCH_DIRECT_JUMP: 1661224 0.830612%
BRANCH_INDIRECT: 9989440 4.99472%
BRANCH_CONDITIONAL: 12053307 6.02665%
BRANCH_DIRECT_CALL: 2827619 1.41381%
BRANCH_INDIRECT_CALL: 596257 0.298129%
BRANCH_RETURN: 3424000 1.712%
BRANCH_OTHER: 0 0%

DRAM PAGES: 1048576
Allocated PAGES: 8817
