Initialize SIGNATURE TABLE
ST_SET: 1
ST_WAY: 256
ST_TAG_BIT: 16
ST_TAG_MASK: ffff

Initialize PATTERN TABLE
PT_SET: 512
PT_WAY: 4
SIG_DELTA_BIT: 7
C_SIG_BIT: 4
C_DELTA_BIT: 4

Initialize PREFETCH FILTER
FILTER_SET: 1024

*** ChampSim Multicore Out-of-Order Simulator ***

Warmup Instructions: 50000000
Simulation Instructions: 200000000
Number of CPUs: 1
LLC sets: 2048
LLC ways: 16
Off-chip DRAM Size: 4096 MB Channels: 1 Width: 64-bit Data Rate: 6400 MT/s
CPU 0 runs traces/spec2k17/srv_42.champsimtrace.xz
.xz
BTB has LRU replacement policy
ITLB has LRU replacement policy
DTLB has LRU replacement policy
STLB has LRU replacement policy
L1I has LRU replacement policy
L1D has LRU replacement policy
ST_WAYS: 256
PT_SETS: 512
Initialize SRRIP state for L2C
Initialize DRRIP state for LLC
Heartbeat CPU 0 instructions: 10000000 cycles: 2931424 heartbeat IPC: 3.41131 cumulative IPC: 3.41131 (Simulation time: 0 hr 0 min 36 sec) 
Heartbeat CPU 0 instructions: 20000003 cycles: 5856119 heartbeat IPC: 3.41916 cumulative IPC: 3.41523 (Simulation time: 0 hr 1 min 11 sec) 
Heartbeat CPU 0 instructions: 30000003 cycles: 8784143 heartbeat IPC: 3.41527 cumulative IPC: 3.41525 (Simulation time: 0 hr 1 min 45 sec) 
*** Reached end of trace for Core: 0 Repeating trace: traces/spec2k17/srv_42.champsimtrace.xz
Heartbeat CPU 0 instructions: 40000000 cycles: 11709247 heartbeat IPC: 3.41868 cumulative IPC: 3.4161 (Simulation time: 0 hr 2 min 20 sec) 
Heartbeat CPU 0 instructions: 50000002 cycles: 14635088 heartbeat IPC: 3.41782 cumulative IPC: 3.41645 (Simulation time: 0 hr 2 min 54 sec) 

Warmup complete CPU 0 instructions: 50000002 cycles: 14635088 (Simulation time: 0 hr 2 min 54 sec) 

Heartbeat CPU 0 instructions: 60000000 cycles: 44922690 heartbeat IPC: 0.330168 cumulative IPC: 0.330168 (Simulation time: 0 hr 3 min 54 sec) 
*** Reached end of trace for Core: 0 Repeating trace: traces/spec2k17/srv_42.champsimtrace.xz
Heartbeat CPU 0 instructions: 70000001 cycles: 74878071 heartbeat IPC: 0.33383 cumulative IPC: 0.331989 (Simulation time: 0 hr 4 min 49 sec) 
Heartbeat CPU 0 instructions: 80000000 cycles: 104764575 heartbeat IPC: 0.334599 cumulative IPC: 0.332854 (Simulation time: 0 hr 5 min 42 sec) 
Heartbeat CPU 0 instructions: 90000001 cycles: 135092206 heartbeat IPC: 0.329732 cumulative IPC: 0.332068 (Simulation time: 0 hr 6 min 38 sec) 
*** Reached end of trace for Core: 0 Repeating trace: traces/spec2k17/srv_42.champsimtrace.xz
Heartbeat CPU 0 instructions: 100000002 cycles: 165015232 heartbeat IPC: 0.334191 cumulative IPC: 0.332491 (Simulation time: 0 hr 7 min 33 sec) 
Heartbeat CPU 0 instructions: 110000000 cycles: 194930361 heartbeat IPC: 0.334279 cumulative IPC: 0.332787 (Simulation time: 0 hr 8 min 29 sec) 
Heartbeat CPU 0 instructions: 120000000 cycles: 225206945 heartbeat IPC: 0.330288 cumulative IPC: 0.332428 (Simulation time: 0 hr 9 min 23 sec) 
*** Reached end of trace for Core: 0 Repeating trace: traces/spec2k17/srv_42.champsimtrace.xz
Heartbeat CPU 0 instructions: 130000000 cycles: 255010370 heartbeat IPC: 0.335532 cumulative IPC: 0.332813 (Simulation time: 0 hr 10 min 22 sec) 
Heartbeat CPU 0 instructions: 140000001 cycles: 284991985 heartbeat IPC: 0.333538 cumulative IPC: 0.332893 (Simulation time: 0 hr 11 min 21 sec) 
Heartbeat CPU 0 instructions: 150000000 cycles: 315263384 heartbeat IPC: 0.330345 cumulative IPC: 0.332637 (Simulation time: 0 hr 12 min 16 sec) 
*** Reached end of trace for Core: 0 Repeating trace: traces/spec2k17/srv_42.champsimtrace.xz
Heartbeat CPU 0 instructions: 160000002 cycles: 345133087 heartbeat IPC: 0.334787 cumulative IPC: 0.332831 (Simulation time: 0 hr 13 min 13 sec) 
Heartbeat CPU 0 instructions: 170000000 cycles: 375125322 heartbeat IPC: 0.33342 cumulative IPC: 0.33288 (Simulation time: 0 hr 14 min 8 sec) 
Heartbeat CPU 0 instructions: 180000000 cycles: 405293376 heartbeat IPC: 0.331476 cumulative IPC: 0.332772 (Simulation time: 0 hr 15 min 8 sec) 
*** Reached end of trace for Core: 0 Repeating trace: traces/spec2k17/srv_42.champsimtrace.xz
Heartbeat CPU 0 instructions: 190000002 cycles: 435174367 heartbeat IPC: 0.334661 cumulative IPC: 0.332906 (Simulation time: 0 hr 16 min 6 sec) 
Heartbeat CPU 0 instructions: 200000002 cycles: 465142477 heartbeat IPC: 0.333688 cumulative IPC: 0.332958 (Simulation time: 0 hr 17 min 4 sec) 
Heartbeat CPU 0 instructions: 210000002 cycles: 495324536 heartbeat IPC: 0.331323 cumulative IPC: 0.332855 (Simulation time: 0 hr 18 min 3 sec) 
*** Reached end of trace for Core: 0 Repeating trace: traces/spec2k17/srv_42.champsimtrace.xz
Heartbeat CPU 0 instructions: 220000000 cycles: 525242818 heartbeat IPC: 0.334244 cumulative IPC: 0.332937 (Simulation time: 0 hr 19 min 3 sec) 
Heartbeat CPU 0 instructions: 230000001 cycles: 555168963 heartbeat IPC: 0.334156 cumulative IPC: 0.333004 (Simulation time: 0 hr 19 min 59 sec) 
Heartbeat CPU 0 instructions: 240000001 cycles: 585165714 heartbeat IPC: 0.333369 cumulative IPC: 0.333023 (Simulation time: 0 hr 20 min 57 sec) 
*** Reached end of trace for Core: 0 Repeating trace: traces/spec2k17/srv_42.champsimtrace.xz
Heartbeat CPU 0 instructions: 250000002 cycles: 615240298 heartbeat IPC: 0.332507 cumulative IPC: 0.332997 (Simulation time: 0 hr 21 min 54 sec) 
Finished CPU 0 instructions: 200000000 cycles: 600605210 cumulative IPC: 0.332997 (Simulation time: 0 hr 21 min 54 sec) 

ChampSim completed all CPUs

Region of Interest Statistics

CPU 0 cumulative IPC: 0.332997 instructions: 200000000 cycles: 600605210
ITLB TOTAL     ACCESS:   34766371  HIT:   33115593  MISS:    1650778  HIT %:    95.2518  MISS %:     4.7482   MPKI: 8.25389
ITLB LOAD TRANSLATION ACCESS:   34766371  HIT:   33115593  MISS:    1650778  HIT %:    95.2518  MISS %:     4.7482   MPKI: 8.25389
ITLB PREFETCH  REQUESTED:          0  ISSUED:          0  USEFUL:          0  USELESS:          0
ITLB USEFUL LOAD PREFETCHES:          0 PREFETCH ISSUED TO LOWER LEVEL:          0  ACCURACY: -nan
ITLB TIMELY PREFETCHES:          0 LATE PREFETCHES: 0 DROPPED PREFETCHES: 0
ITLB PREFETCHES SAME FILL-ORIGIN LEVEL: 0 DIFFERENT FILL-ORIGIN LEVEL: 0
ITLB AVERAGE MISS LATENCY: 9.67735 cycles
ITLB RQ	ACCESS:   40671986	FORWARD:          0	MERGED:    5413719	TO_CACHE:   35258267

DTLB TOTAL     ACCESS:   45876696  HIT:   44053428  MISS:    1823268  HIT %:    96.0257  MISS %:    3.97428   MPKI: 9.11634
DTLB LOAD TRANSLATION ACCESS:   45876696  HIT:   44053428  MISS:    1823268  HIT %:    96.0257  MISS %:    3.97428   MPKI: 9.11634
DTLB PREFETCH  REQUESTED:          0  ISSUED:          0  USEFUL:          0  USELESS:          0
DTLB USEFUL LOAD PREFETCHES:          0 PREFETCH ISSUED TO LOWER LEVEL:          0  ACCURACY: -nan
DTLB TIMELY PREFETCHES:          0 LATE PREFETCHES: 0 DROPPED PREFETCHES: 0
DTLB PREFETCHES SAME FILL-ORIGIN LEVEL: 0 DIFFERENT FILL-ORIGIN LEVEL: 0
DTLB AVERAGE MISS LATENCY: 12.2227 cycles
DTLB RQ	ACCESS:   61105071	FORWARD:          0	MERGED:   15109740	TO_CACHE:   45995331

STLB TOTAL     ACCESS:    3474046  HIT:    3355255  MISS:     118791  HIT %:    96.5806  MISS %:    3.41938   MPKI: 0.593955
STLB LOAD TRANSLATION ACCESS:    3474046  HIT:    3355255  MISS:     118791  HIT %:    96.5806  MISS %:    3.41938   MPKI: 0.593955
STLB PREFETCH  REQUESTED:          0  ISSUED:          0  USEFUL:          0  USELESS:          0
STLB USEFUL LOAD PREFETCHES:          0 PREFETCH ISSUED TO LOWER LEVEL:          0  ACCURACY: -nan
STLB TIMELY PREFETCHES:          0 LATE PREFETCHES: 0 DROPPED PREFETCHES: 0
STLB PREFETCHES SAME FILL-ORIGIN LEVEL: 0 DIFFERENT FILL-ORIGIN LEVEL: 0
STLB AVERAGE MISS LATENCY: 58.5784 cycles
STLB RQ	ACCESS:    3474046	FORWARD:          0	MERGED:          0	TO_CACHE:    3474046

STLB Hit, L1D data hit: 0
STLB Hit, L2C data hit: 0
STLB Hit, LLC data hit: 0
STLB Hit, LLC data miss: 0
STLB STLB hints to L2: 0
L1D TOTAL     ACCESS:   58985715  HIT:   54467048  MISS:    4518667  HIT %:    92.3394  MISS %:    7.66061   MPKI: 22.5933
L1D LOAD      ACCESS:   35356413  HIT:   32152313  MISS:    3204100  HIT %:    90.9377  MISS %:    9.06229   MPKI: 16.0205
L1D RFO       ACCESS:   23629302  HIT:   22314735  MISS:    1314567  HIT %:    94.4367  MISS %:    5.56329   MPKI: 6.57284
L1D PREFETCH  REQUESTED:          0  ISSUED:          0  USEFUL:          0  USELESS:          0
L1D USEFUL LOAD PREFETCHES:          0 PREFETCH ISSUED TO LOWER LEVEL:          0  ACCURACY: -nan
L1D TIMELY PREFETCHES:          0 LATE PREFETCHES: 0 DROPPED PREFETCHES: 0
L1D PREFETCHES SAME FILL-ORIGIN LEVEL: 0 DIFFERENT FILL-ORIGIN LEVEL: 0
L1D AVERAGE MISS LATENCY: 30.7831 cycles
L1D RQ	ACCESS:   46615867	FORWARD:          0	MERGED:   10896359	TO_CACHE:   35501757
L1D WQ	ACCESS:   25941685	FORWARD:     217751	MERGED:     338371	TO_CACHE:   25603314

L1D UNIQUE REGIONS ACCESSED: 0
L1D REGIONS CONFLICTS: 0
L1D Cross Page Prefetch Requests: 0
L1D Same Page Prefetch Requests: 0
L1D ROI Sum of L1D PQ occupancy: 0
L1D PREFETCHES PUSHED FROM L2C: 0
L1I TOTAL     ACCESS:   39386855  HIT:   30928473  MISS:    8458382  HIT %:    78.5249  MISS %:    21.4751   MPKI: 42.2919
L1I LOAD      ACCESS:   39386855  HIT:   30928473  MISS:    8458382  HIT %:    78.5249  MISS %:    21.4751   MPKI: 42.2919
L1I PREFETCH  REQUESTED:          0  ISSUED:          0  USEFUL:          0  USELESS:          0
L1I USEFUL LOAD PREFETCHES:          0 PREFETCH ISSUED TO LOWER LEVEL:          0  ACCURACY: -nan
L1I TIMELY PREFETCHES:          0 LATE PREFETCHES: 0 DROPPED PREFETCHES: 0
L1I PREFETCHES SAME FILL-ORIGIN LEVEL: 0 DIFFERENT FILL-ORIGIN LEVEL: 0
L1I AVERAGE MISS LATENCY: 19.6743 cycles
L1I RQ	ACCESS:   59990562	FORWARD:          0	MERGED:   19318576	TO_CACHE:   40671986

BTB TOTAL     ACCESS:   29850924  HIT:   19884743  MISS:    9966181  HIT %:    66.6135  MISS %:    33.3865   MPKI: 49.8309
BTB BRANCH_DIRECT_JUMP	ACCESS:    2604773  HIT:    1779545  MISS:     825228
BTB BRANCH_INDIRECT	ACCESS:   12507392  HIT:    8343784  MISS:    4163608
BTB BRANCH_CONDITIONAL	ACCESS:    6652538  HIT:    5757723  MISS:     894815
BTB BRANCH_DIRECT_CALL	ACCESS:    3088472  HIT:    1613786  MISS:    1474686
BTB BRANCH_INDIRECT_CALL	ACCESS:     954646  HIT:     671097  MISS:     283549
BTB BRANCH_RETURN	ACCESS:    4043103  HIT:    1718808  MISS:    2324295
BTB BRANCH_OTHER ACCESS:          0  HIT:          0  MISS:          0

L2C TOTAL     ACCESS:   16049446  HIT:   12718550  MISS:    3330896  HIT %:     79.246  MISS %:     20.754   MPKI: 16.6545
L2C LOAD      ACCESS:   11662475  HIT:    9158122  MISS:    2504353  HIT %:    78.5264  MISS %:    21.4736   MPKI: 12.5218
L2C DATA LOAD MPKI: 4.81365
L2C INSTRUCTION LOAD MPKI: 7.70812
L2C RFO       ACCESS:    1314567  HIT:     707357  MISS:     607210  HIT %:    53.8091  MISS %:    46.1909   MPKI: 3.03605
L2C PREFETCH  ACCESS:     788864  HIT:     788627  MISS:        237  HIT %:      99.97  MISS %:  0.0300432   MPKI: 0.001185
AGUS PREFETCH L1 MISS: 0
L2C DATA PREFETCH MPKI: 0.001185
L2C INSTRUCTION PREFETCH MPKI: 0
L2C WRITEBACK ACCESS:    2074639  HIT:    1945593  MISS:     129046  HIT %:    93.7798  MISS %:    6.22017   MPKI: 0.64523
L2C LOAD TRANSLATION ACCESS:     208901  HIT:     118851  MISS:      90050  HIT %:    56.8935  MISS %:    43.1065   MPKI: 0.45025
L2C PREFETCH  REQUESTED:    1828700  ISSUED:    1828700  USEFUL:        125  USELESS:        112
L2C USEFUL LOAD PREFETCHES:        125 PREFETCH ISSUED TO LOWER LEVEL:    1012271  ACCURACY: 0.0123485
L2C TIMELY PREFETCHES:        125 LATE PREFETCHES: 0 DROPPED PREFETCHES: 0
L2C PREFETCHES SAME FILL-ORIGIN LEVEL: 237 DIFFERENT FILL-ORIGIN LEVEL: 1012034
L2C AVERAGE MISS LATENCY: 36.6606 cycles
L2C RQ	ACCESS:   13185949	FORWARD:          0	MERGED:          0	TO_CACHE:   13185943
L2C WQ	ACCESS:    2074639	FORWARD:          8	MERGED:          0	TO_CACHE:    2074639
L2C PQ	ACCESS:    1828700	FORWARD:          0	MERGED:       3975	TO_CACHE:    1824723

L2C Instructions Evicting Data 658744
L2C Translations Evicting Data 57342
L2C Data Evicting Data 908041
L2C Instructions Evicting Instructions 854582
L2C Translations Evicting Instructions 28547
L2C Data Evicting Instructions 607476
L2C Instructions Evicting Translations 28297
L2C Translations Evicting Translations 4161
L2C Data Evicting Translations 54660
L2C Dense regions hint from L2: 0
PSCL5 TOTAL     ACCESS:     118791  HIT:     118791  MISS:          0  HIT %:        100  MISS %:          0   MPKI: 0
PSCL5 LOAD TRANSLATION ACCESS:     118791  HIT:     118791  MISS:          0  HIT %:        100  MISS %:          0   MPKI: 0
PSCL5 PREFETCH  REQUESTED:          0  ISSUED:          0  USEFUL:          0  USELESS:          0
PSCL5 USEFUL LOAD PREFETCHES:          0 PREFETCH ISSUED TO LOWER LEVEL:          0  ACCURACY: -nan
PSCL5 TIMELY PREFETCHES:          0 LATE PREFETCHES: 0 DROPPED PREFETCHES: 0
PSCL5 PREFETCHES SAME FILL-ORIGIN LEVEL: 0 DIFFERENT FILL-ORIGIN LEVEL: 0

PSCL4 TOTAL     ACCESS:     113358  HIT:     109934  MISS:       3424  HIT %:    96.9795  MISS %:    3.02052   MPKI: 0.01712
PSCL4 LOAD TRANSLATION ACCESS:     113358  HIT:     109934  MISS:       3424  HIT %:    96.9795  MISS %:    3.02052   MPKI: 0.01712
PSCL4 PREFETCH  REQUESTED:          0  ISSUED:          0  USEFUL:          0  USELESS:          0
PSCL4 USEFUL LOAD PREFETCHES:          0 PREFETCH ISSUED TO LOWER LEVEL:          0  ACCURACY: -nan
PSCL4 TIMELY PREFETCHES:          0 LATE PREFETCHES: 0 DROPPED PREFETCHES: 0
PSCL4 PREFETCHES SAME FILL-ORIGIN LEVEL: 0 DIFFERENT FILL-ORIGIN LEVEL: 0

PSCL3 TOTAL     ACCESS:     112448  HIT:      89073  MISS:      23375  HIT %:    79.2126  MISS %:    20.7874   MPKI: 0.116875
PSCL3 LOAD TRANSLATION ACCESS:     112448  HIT:      89073  MISS:      23375  HIT %:    79.2126  MISS %:    20.7874   MPKI: 0.116875
PSCL3 PREFETCH  REQUESTED:          0  ISSUED:          0  USEFUL:          0  USELESS:          0
PSCL3 USEFUL LOAD PREFETCHES:          0 PREFETCH ISSUED TO LOWER LEVEL:          0  ACCURACY: -nan
PSCL3 TIMELY PREFETCHES:          0 LATE PREFETCHES: 0 DROPPED PREFETCHES: 0
PSCL3 PREFETCHES SAME FILL-ORIGIN LEVEL: 0 DIFFERENT FILL-ORIGIN LEVEL: 0

PSCL2 TOTAL     ACCESS:     118791  HIT:      55480  MISS:      63311  HIT %:    46.7039  MISS %:    53.2961   MPKI: 0.316555
PSCL2 LOAD TRANSLATION ACCESS:     118791  HIT:      55480  MISS:      63311  HIT %:    46.7039  MISS %:    53.2961   MPKI: 0.316555
PSCL2 PREFETCH  REQUESTED:          0  ISSUED:          0  USEFUL:          0  USELESS:          0
PSCL2 USEFUL LOAD PREFETCHES:          0 PREFETCH ISSUED TO LOWER LEVEL:          0  ACCURACY: -nan
PSCL2 TIMELY PREFETCHES:          0 LATE PREFETCHES: 0 DROPPED PREFETCHES: 0
PSCL2 PREFETCHES SAME FILL-ORIGIN LEVEL: 0 DIFFERENT FILL-ORIGIN LEVEL: 0

LLC TOTAL     ACCESS:    5081344  HIT:    4865870  MISS:     215474  HIT %:    95.7595  MISS %:    4.24049   MPKI: 1.07737
LLC LOAD      ACCESS:    2504338  HIT:    2419955  MISS:      84383  HIT %:    96.6305  MISS %:    3.36947   MPKI: 0.421915
LLC RFO       ACCESS:     607210  HIT:     548451  MISS:      58759  HIT %:    90.3231  MISS %:    9.67688   MPKI: 0.293795
LLC PREFETCH  ACCESS:    1011195  HIT:     945764  MISS:      65431  HIT %:    93.5293  MISS %:    6.47066   MPKI: 0.327155
AGUS PREFETCH L1 MISS: 0
LLC WRITEBACK ACCESS:     868551  HIT:     867485  MISS:       1066  HIT %:    99.8773  MISS %:   0.122733   MPKI: 0.00533
LLC LOAD TRANSLATION ACCESS:      90050  HIT:      84215  MISS:       5835  HIT %:    93.5203  MISS %:    6.47973   MPKI: 0.029175
LLC PREFETCH  REQUESTED:          0  ISSUED:          0  USEFUL:      10069  USELESS:      54267
LLC USEFUL LOAD PREFETCHES:      10069 PREFETCH ISSUED TO LOWER LEVEL:      66365  ACCURACY: 15.1722
LLC TIMELY PREFETCHES:      10069 LATE PREFETCHES: 934 DROPPED PREFETCHES: 0
LLC PREFETCHES SAME FILL-ORIGIN LEVEL: 66317 DIFFERENT FILL-ORIGIN LEVEL: 0
LLC AVERAGE MISS LATENCY: 169.805 cycles
LLC RQ	ACCESS:    3201613	FORWARD:          0	MERGED:          0	TO_CACHE:    3201598
LLC WQ	ACCESS:     868551	FORWARD:         15	MERGED:          0	TO_CACHE:     868551
LLC PQ	ACCESS:    1012271	FORWARD:          0	MERGED:         62	TO_CACHE:    1012209

LLC Dense regions hint to LLC: 0

RAW hits: 3181304
Loads Generated: 49797173
Loads sent to L1D: 46615867
Stores Generated: 25941683
Stores sent to L1D: 25941685
Major fault: 0 Minor fault: 4280
Allocated PAGES: 4280
 All Calls: 4018105
 Critical Calls: 4018105
------------------
Depth Distribution
------------------
depth 0: 0
depth 1: 2200129
depth 2: 12032
depth 3: 243
depth 4: 0
depth 5: 0
depth 6: 0
depth 7: 0
depth 8: 0
depth 9: 0
depth 10: 0
depth 11: 0
depth 12: 0
depth 13: 0
depth 14: 0
depth 15: 0
depth 16: 0
depth 17: 0
depth 18: 0
depth 19: 0
depth 20: 0
depth 21: 0
depth 22: 0
depth 23: 0
depth 24: 0
depth 25: 0
depth 26: 0
depth 27: 0
depth 28: 0
depth 29: 0
Total: 2212404
-----------------------------
-----------------------------
	Captured at Filter
-----------------------------
depth 0: 0
depth 1: 6488
depth 2: 75
depth 3: 0
depth 4: 0
depth 5: 0
depth 6: 0
depth 7: 0
depth 8: 0
depth 9: 0
depth 10: 0
depth 11: 0
depth 12: 0
depth 13: 0
depth 14: 0
depth 15: 0
depth 16: 0
depth 17: 0
depth 18: 0
depth 19: 0
depth 20: 0
depth 21: 0
depth 22: 0
depth 23: 0
depth 24: 0
depth 25: 0
depth 26: 0
depth 27: 0
depth 28: 0
depth 29: 0
-----------------------------
-----------------------------
		Lost at Page
-----------------------------
depth 0: 0
depth 1: 318017
depth 2: 1437
depth 3: 77
depth 4: 0
depth 5: 0
depth 6: 0
depth 7: 0
depth 8: 0
depth 9: 0
depth 10: 0
depth 11: 0
depth 12: 0
depth 13: 0
depth 14: 0
depth 15: 0
depth 16: 0
depth 17: 0
depth 18: 0
depth 19: 0
depth 20: 0
depth 21: 0
depth 22: 0
depth 23: 0
depth 24: 0
depth 25: 0
depth 26: 0
depth 27: 0
depth 28: 0
depth 29: 0
-----------------------------
-----------------------------
	Lost due to PQ Size
-----------------------------
0
-----------------------------
ST read accesses: 2580342
ST write accesses: 623752
PT read accesses: 31402881
PT write accesses: 3300623
FILTER read accesses: 8368654
FILTER write accesses: 3382419
GHR read accesses: 7038932
GHR write accesses: 262092
GHR counter read accesses: 26339016
GHR counter write accesses: 3206916
ST tag read accesses: 1535643484
ST tag write accesses: 242463445

DRAM Statistics
 CHANNEL 0
 RQ ROW_BUFFER_HIT:      47811  ROW_BUFFER_MISS:     166590
 DBUS_CONGESTED:        136
 WQ ROW_BUFFER_HIT:      12237  ROW_BUFFER_MISS:      95168  FULL:          0

 AVG_CONGESTED_CYCLE: 6
 All warmup complete: 2
Channel 0 Bank busy for read cycles: 0
Channel 0 Bank busy for write cycles: 0
Channel 0
Rank 0
0banks busy for read cycles: 569025348
0banks busy for write cycles: 61355
1banks busy for read cycles: 14922930
1banks busy for write cycles: 8454153
2banks busy for read cycles: 3381810
2banks busy for write cycles: 2012180
3banks busy for read cycles: 899694
3banks busy for write cycles: 655675
4banks busy for read cycles: 184427
4banks busy for write cycles: 220772
5banks busy for read cycles: 54451
5banks busy for write cycles: 88190
6banks busy for read cycles: 47592
6banks busy for write cycles: 45494
7banks busy for read cycles: 66742
7banks busy for write cycles: 58081
8banks busy for read cycles: 164375
8banks busy for write cycles: 261942

CPU 0 Branch Prediction Accuracy: 99.8256% MPKI: 0.309945 Average ROB Occupancy at Mispredict: 43.5072
Branch types
NOT_BRANCH: 164461168 82.2306%
BRANCH_DIRECT_JUMP: 2604773 1.30239%
BRANCH_INDIRECT: 12507392 6.2537%
BRANCH_CONDITIONAL: 12340417 6.17021%
BRANCH_DIRECT_CALL: 3088472 1.54424%
BRANCH_INDIRECT_CALL: 954646 0.477323%
BRANCH_RETURN: 4043103 2.02155%
BRANCH_OTHER: 0 0%

DRAM PAGES: 1048576
Allocated PAGES: 4280
