
*** ChampSim Multicore Out-of-Order Simulator ***

Warmup Instructions: 25000000
Simulation Instructions: 25000000
Number of CPUs: 1
LLC sets: 2048
LLC ways: 16
Off-chip DRAM Size: 4096 MB Channels: 1 Width: 64-bit Data Rate: 6400 MT/s
CPU 0 runs ../../traces/spec2k17/client_001.champsimtrace.xz
.xz
BTB has LRU replacement policy
ITLB has LRU replacement policy
DTLB has LRU replacement policy
STLB has LRU replacement policy
L1I has LRU replacement policy
L1D has LRU replacement policy
Initialize SRRIP state for L2C
Initialize DRRIP state for LLC
Heartbeat CPU 0 instructions: 10000003 cycles: 2833611 heartbeat IPC: 3.52907 cumulative IPC: 3.52907 (Simulation time: 0 hr 0 min 21 sec) 
Heartbeat CPU 0 instructions: 20000002 cycles: 5731923 heartbeat IPC: 3.45028 cumulative IPC: 3.48923 (Simulation time: 0 hr 0 min 43 sec) 

Warmup complete CPU 0 instructions: 25000001 cycles: 7107629 (Simulation time: 0 hr 0 min 55 sec) 

Heartbeat CPU 0 instructions: 30000003 cycles: 15825466 heartbeat IPC: 0.990732 cumulative IPC: 0.573537 (Simulation time: 0 hr 1 min 16 sec) 
Heartbeat CPU 0 instructions: 40000000 cycles: 33115640 heartbeat IPC: 0.578363 cumulative IPC: 0.576745 (Simulation time: 0 hr 2 min 13 sec) 
Heartbeat CPU 0 instructions: 50000000 cycles: 47307236 heartbeat IPC: 0.704642 cumulative IPC: 0.621897 (Simulation time: 0 hr 3 min 25 sec) 
Finished CPU 0 instructions: 25000003 cycles: 40199608 cumulative IPC: 0.621897 (Simulation time: 0 hr 3 min 25 sec) 

ChampSim completed all CPUs

Region of Interest Statistics

CPU 0 cumulative IPC: 0.621897 instructions: 25000003 cycles: 40199608
ITLB TOTAL     ACCESS:    3953100  HIT:    3922493  MISS:      30607  HIT %:    99.2257  MISS %:   0.774253   MPKI: 1.22428
ITLB LOAD TRANSLATION ACCESS:    3953100  HIT:    3922493  MISS:      30607  HIT %:    99.2257  MISS %:   0.774253   MPKI: 1.22428
ITLB PREFETCH  REQUESTED:          0  ISSUED:          0  USEFUL:          0  USELESS:          0
ITLB USEFUL LOAD PREFETCHES:          0 PREFETCH ISSUED TO LOWER LEVEL:          0  ACCURACY: -nan
ITLB TIMELY PREFETCHES:          0 LATE PREFETCHES: 0 DROPPED PREFETCHES: 0
ITLB PREFETCHES SAME FILL-ORIGIN LEVEL: 0 DIFFERENT FILL-ORIGIN LEVEL: 0
ITLB AVERAGE MISS LATENCY: 9.54494 cycles
ITLB RQ	ACCESS:    4713427	FORWARD:          0	MERGED:     754522	TO_CACHE:    3958905

DTLB TOTAL     ACCESS:    5496321  HIT:    5359084  MISS:     137237  HIT %:    97.5031  MISS %:    2.49689   MPKI: 5.48948
DTLB LOAD TRANSLATION ACCESS:    5496321  HIT:    5359084  MISS:     137237  HIT %:    97.5031  MISS %:    2.49689   MPKI: 5.48948
DTLB PREFETCH  REQUESTED:          0  ISSUED:          0  USEFUL:          0  USELESS:          0
DTLB USEFUL LOAD PREFETCHES:          0 PREFETCH ISSUED TO LOWER LEVEL:          0  ACCURACY: -nan
DTLB TIMELY PREFETCHES:          0 LATE PREFETCHES: 0 DROPPED PREFETCHES: 0
DTLB PREFETCHES SAME FILL-ORIGIN LEVEL: 0 DIFFERENT FILL-ORIGIN LEVEL: 0
DTLB AVERAGE MISS LATENCY: 9.87293 cycles
DTLB RQ	ACCESS:    6600989	FORWARD:          0	MERGED:    1096627	TO_CACHE:    5504362

STLB TOTAL     ACCESS:     167844  HIT:     165617  MISS:       2227  HIT %:    98.6732  MISS %:    1.32683   MPKI: 0.08908
STLB LOAD TRANSLATION ACCESS:     167844  HIT:     165617  MISS:       2227  HIT %:    98.6732  MISS %:    1.32683   MPKI: 0.08908
STLB PREFETCH  REQUESTED:          0  ISSUED:          0  USEFUL:          0  USELESS:          0
STLB USEFUL LOAD PREFETCHES:          0 PREFETCH ISSUED TO LOWER LEVEL:          0  ACCURACY: -nan
STLB TIMELY PREFETCHES:          0 LATE PREFETCHES: 0 DROPPED PREFETCHES: 0
STLB PREFETCHES SAME FILL-ORIGIN LEVEL: 0 DIFFERENT FILL-ORIGIN LEVEL: 0
STLB AVERAGE MISS LATENCY: 59.7876 cycles
STLB RQ	ACCESS:     167844	FORWARD:          0	MERGED:          0	TO_CACHE:     167844

STLB Hit, L1D data hit: 0
STLB Hit, L2C data hit: 0
STLB Hit, LLC data hit: 0
STLB Hit, LLC data miss: 0
STLB STLB hints to L2: 0
L1D TOTAL     ACCESS:    6600985  HIT:    6600985  MISS:          0  HIT %:        100  MISS %:          0   MPKI: 0
L1D LOAD      ACCESS:    4525592  HIT:    4525592  MISS:          0  HIT %:        100  MISS %:          0   MPKI: 0
L1D RFO       ACCESS:    2075393  HIT:    2075393  MISS:          0  HIT %:        100  MISS %:          0   MPKI: 0
L1D PREFETCH  REQUESTED:          0  ISSUED:          0  USEFUL:          0  USELESS:          0
L1D USEFUL LOAD PREFETCHES:          0 PREFETCH ISSUED TO LOWER LEVEL:          0  ACCURACY: -nan
L1D TIMELY PREFETCHES:          0 LATE PREFETCHES: 0 DROPPED PREFETCHES: 0
L1D PREFETCHES SAME FILL-ORIGIN LEVEL: 0 DIFFERENT FILL-ORIGIN LEVEL: 0
L1D AVERAGE MISS LATENCY: -nan cycles
L1D RQ	ACCESS:    6603359	FORWARD:          0	MERGED:    2053013	TO_CACHE:    4525594
L1D WQ	ACCESS:    2109745	FORWARD:      24752	MERGED:      34350	TO_CACHE:    2075395

L1D UNIQUE REGIONS ACCESSED: 0
L1D REGIONS CONFLICTS: 0
L1D Cross Page Prefetch Requests: 0
L1D Same Page Prefetch Requests: 0
L1D ROI Sum of L1D PQ occupancy: 0
L1D PREFETCHES PUSHED FROM L2C: 0
L1I TOTAL     ACCESS:    4646915  HIT:    4491330  MISS:     155585  HIT %:    96.6519  MISS %:    3.34814   MPKI: 6.2234
L1I LOAD      ACCESS:    4646915  HIT:    4491330  MISS:     155585  HIT %:    96.6519  MISS %:    3.34814   MPKI: 6.2234
L1I PREFETCH  REQUESTED:          0  ISSUED:          0  USEFUL:          0  USELESS:          0
L1I USEFUL LOAD PREFETCHES:          0 PREFETCH ISSUED TO LOWER LEVEL:          0  ACCURACY: -nan
L1I TIMELY PREFETCHES:          0 LATE PREFETCHES: 0 DROPPED PREFETCHES: 0
L1I PREFETCHES SAME FILL-ORIGIN LEVEL: 0 DIFFERENT FILL-ORIGIN LEVEL: 0
L1I AVERAGE MISS LATENCY: 14.9378 cycles
L1I RQ	ACCESS:    7149538	FORWARD:          0	MERGED:    2436111	TO_CACHE:    4713427

BTB TOTAL     ACCESS:    3263007  HIT:    3001555  MISS:     261452  HIT %:    91.9874  MISS %:    8.01261   MPKI: 10.4581
BTB BRANCH_DIRECT_JUMP	ACCESS:     171214  HIT:     169663  MISS:       1551
BTB BRANCH_INDIRECT	ACCESS:     819176  HIT:     710452  MISS:     108724
BTB BRANCH_CONDITIONAL	ACCESS:    1583643  HIT:    1580866  MISS:       2777
BTB BRANCH_DIRECT_CALL	ACCESS:     252744  HIT:     250669  MISS:       2075
BTB BRANCH_INDIRECT_CALL	ACCESS:      91680  HIT:      62773  MISS:      28907
BTB BRANCH_RETURN	ACCESS:     344550  HIT:     227132  MISS:     117418
BTB BRANCH_OTHER ACCESS:          0  HIT:          0  MISS:          0

L2C TOTAL     ACCESS:     157907  HIT:     156823  MISS:       1084  HIT %:    99.3135  MISS %:    0.68648   MPKI: 0.04336
L2C LOAD      ACCESS:     155585  HIT:     154648  MISS:        937  HIT %:    99.3978  MISS %:   0.602243   MPKI: 0.03748
L2C DATA LOAD MPKI: 0
L2C INSTRUCTION LOAD MPKI: 0.03748
L2C LOAD TRANSLATION ACCESS:       2322  HIT:       2175  MISS:        147  HIT %:    93.6693  MISS %:    6.33075   MPKI: 0.00588
L2C PREFETCH  REQUESTED:          0  ISSUED:          0  USEFUL:          0  USELESS:          0
L2C USEFUL LOAD PREFETCHES:          0 PREFETCH ISSUED TO LOWER LEVEL:          0  ACCURACY: -nan
L2C TIMELY PREFETCHES:          0 LATE PREFETCHES: 0 DROPPED PREFETCHES: 0
L2C PREFETCHES SAME FILL-ORIGIN LEVEL: 0 DIFFERENT FILL-ORIGIN LEVEL: 0
L2C AVERAGE MISS LATENCY: 148.074 cycles
L2C RQ	ACCESS:     157907	FORWARD:          0	MERGED:          0	TO_CACHE:     157907

L2C Instructions Evicting Data 0
L2C Translations Evicting Data 0
L2C Data Evicting Data 0
L2C Instructions Evicting Instructions 194
L2C Translations Evicting Instructions 28
L2C Data Evicting Instructions 0
L2C Instructions Evicting Translations 33
L2C Translations Evicting Translations 2
L2C Data Evicting Translations 0
L2C Dense regions hint from L2: 0
PSCL5 TOTAL     ACCESS:       2227  HIT:       2227  MISS:          0  HIT %:        100  MISS %:          0   MPKI: 0
PSCL5 LOAD TRANSLATION ACCESS:       2227  HIT:       2227  MISS:          0  HIT %:        100  MISS %:          0   MPKI: 0
PSCL5 PREFETCH  REQUESTED:          0  ISSUED:          0  USEFUL:          0  USELESS:          0
PSCL5 USEFUL LOAD PREFETCHES:          0 PREFETCH ISSUED TO LOWER LEVEL:          0  ACCURACY: -nan
PSCL5 TIMELY PREFETCHES:          0 LATE PREFETCHES: 0 DROPPED PREFETCHES: 0
PSCL5 PREFETCHES SAME FILL-ORIGIN LEVEL: 0 DIFFERENT FILL-ORIGIN LEVEL: 0

PSCL4 TOTAL     ACCESS:       2227  HIT:       2227  MISS:          0  HIT %:        100  MISS %:          0   MPKI: 0
PSCL4 LOAD TRANSLATION ACCESS:       2227  HIT:       2227  MISS:          0  HIT %:        100  MISS %:          0   MPKI: 0
PSCL4 PREFETCH  REQUESTED:          0  ISSUED:          0  USEFUL:          0  USELESS:          0
PSCL4 USEFUL LOAD PREFETCHES:          0 PREFETCH ISSUED TO LOWER LEVEL:          0  ACCURACY: -nan
PSCL4 TIMELY PREFETCHES:          0 LATE PREFETCHES: 0 DROPPED PREFETCHES: 0
PSCL4 PREFETCHES SAME FILL-ORIGIN LEVEL: 0 DIFFERENT FILL-ORIGIN LEVEL: 0

PSCL3 TOTAL     ACCESS:       2225  HIT:       2222  MISS:          3  HIT %:    99.8652  MISS %:   0.134831   MPKI: 0.00012
PSCL3 LOAD TRANSLATION ACCESS:       2225  HIT:       2222  MISS:          3  HIT %:    99.8652  MISS %:   0.134831   MPKI: 0.00012
PSCL3 PREFETCH  REQUESTED:          0  ISSUED:          0  USEFUL:          0  USELESS:          0
PSCL3 USEFUL LOAD PREFETCHES:          0 PREFETCH ISSUED TO LOWER LEVEL:          0  ACCURACY: -nan
PSCL3 TIMELY PREFETCHES:          0 LATE PREFETCHES: 0 DROPPED PREFETCHES: 0
PSCL3 PREFETCHES SAME FILL-ORIGIN LEVEL: 0 DIFFERENT FILL-ORIGIN LEVEL: 0

PSCL2 TOTAL     ACCESS:       2227  HIT:       2134  MISS:         93  HIT %:     95.824  MISS %:    4.17602   MPKI: 0.00372
PSCL2 LOAD TRANSLATION ACCESS:       2227  HIT:       2134  MISS:         93  HIT %:     95.824  MISS %:    4.17602   MPKI: 0.00372
PSCL2 PREFETCH  REQUESTED:          0  ISSUED:          0  USEFUL:          0  USELESS:          0
PSCL2 USEFUL LOAD PREFETCHES:          0 PREFETCH ISSUED TO LOWER LEVEL:          0  ACCURACY: -nan
PSCL2 TIMELY PREFETCHES:          0 LATE PREFETCHES: 0 DROPPED PREFETCHES: 0
PSCL2 PREFETCHES SAME FILL-ORIGIN LEVEL: 0 DIFFERENT FILL-ORIGIN LEVEL: 0

LLC TOTAL     ACCESS:       1084  HIT:        149  MISS:        935  HIT %:    13.7454  MISS %:    86.2546   MPKI: 0.0374
LLC LOAD      ACCESS:        937  HIT:        126  MISS:        811  HIT %:    13.4472  MISS %:    86.5528   MPKI: 0.03244
LLC LOAD TRANSLATION ACCESS:        147  HIT:         23  MISS:        124  HIT %:    15.6463  MISS %:    84.3537   MPKI: 0.00496
LLC PREFETCH  REQUESTED:          0  ISSUED:          0  USEFUL:          0  USELESS:          0
LLC USEFUL LOAD PREFETCHES:          0 PREFETCH ISSUED TO LOWER LEVEL:          0  ACCURACY: -nan
LLC TIMELY PREFETCHES:          0 LATE PREFETCHES: 0 DROPPED PREFETCHES: 0
LLC PREFETCHES SAME FILL-ORIGIN LEVEL: 0 DIFFERENT FILL-ORIGIN LEVEL: 0
LLC AVERAGE MISS LATENCY: 136.84 cycles
LLC RQ	ACCESS:       1084	FORWARD:          0	MERGED:          0	TO_CACHE:       1084

LLC Dense regions hint to LLC: 0

RAW hits: 245633
Loads Generated: 6848994
Loads sent to L1D: 6603359
Stores Generated: 2109730
Stores sent to L1D: 2109745
Major fault: 0 Minor fault: 2749
Allocated PAGES: 2749

DRAM Statistics
 CHANNEL 0
 RQ ROW_BUFFER_HIT:        311  ROW_BUFFER_MISS:        624
 DBUS_CONGESTED:          0
 WQ ROW_BUFFER_HIT:          0  ROW_BUFFER_MISS:          0  FULL:          0

 AVG_CONGESTED_CYCLE: -
 All warmup complete: 2
Channel 0 Bank busy for read cycles: 0
Channel 0 Bank busy for write cycles: 0
Channel 0
Rank 0
0banks busy for read cycles: 40097502
0banks busy for write cycles: 0
1banks busy for read cycles: 95064
1banks busy for write cycles: 0
2banks busy for read cycles: 7043
2banks busy for write cycles: 0
3banks busy for read cycles: 0
3banks busy for write cycles: 0
4banks busy for read cycles: 0
4banks busy for write cycles: 0
5banks busy for read cycles: 0
5banks busy for write cycles: 0
6banks busy for read cycles: 0
6banks busy for write cycles: 0
7banks busy for read cycles: 0
7banks busy for write cycles: 0
8banks busy for read cycles: 0
8banks busy for write cycles: 0

CPU 0 Branch Prediction Accuracy: 98.6142% MPKI: 2.36168 Average ROB Occupancy at Mispredict: 20.7051
Branch types
NOT_BRANCH: 20739298 82.9572%
BRANCH_DIRECT_JUMP: 171214 0.684856%
BRANCH_INDIRECT: 819176 3.2767%
BRANCH_CONDITIONAL: 2580995 10.324%
BRANCH_DIRECT_CALL: 252744 1.01098%
BRANCH_INDIRECT_CALL: 91680 0.36672%
BRANCH_RETURN: 344550 1.3782%
BRANCH_OTHER: 0 0%

DRAM PAGES: 1048576
Allocated PAGES: 2749
