
*** ChampSim Multicore Out-of-Order Simulator ***

Warmup Instructions: 25000000
Simulation Instructions: 25000000
Number of CPUs: 1
LLC sets: 2048
LLC ways: 16
Off-chip DRAM Size: 4096 MB Channels: 1 Width: 64-bit Data Rate: 6400 MT/s
CPU 0 runs ../../traces/spec2k17/srv_31.champsimtrace.xz
.xz
BTB has LRU replacement policy
ITLB has LRU replacement policy
DTLB has LRU replacement policy
STLB has LRU replacement policy
L1I has LRU replacement policy
L1D has LRU replacement policy
Initialize SRRIP state for L2C
Initialize DRRIP state for LLC
Heartbeat CPU 0 instructions: 10000000 cycles: 2799602 heartbeat IPC: 3.57194 cumulative IPC: 3.57194 (Simulation time: 0 hr 11 min 50 sec) 
Heartbeat CPU 0 instructions: 20000002 cycles: 5596549 heartbeat IPC: 3.57533 cumulative IPC: 3.57363 (Simulation time: 0 hr 23 min 14 sec) 

Warmup complete CPU 0 instructions: 25000002 cycles: 6995248 (Simulation time: 0 hr 29 min 6 sec) 

Heartbeat CPU 0 instructions: 30000002 cycles: 13138414 heartbeat IPC: 1.32593 cumulative IPC: 0.813913 (Simulation time: 0 hr 35 min 33 sec) 
*** Reached end of trace for Core: 0 Repeating trace: ../../traces/spec2k17/srv_31.champsimtrace.xz
Heartbeat CPU 0 instructions: 40000001 cycles: 25706415 heartbeat IPC: 0.795671 cumulative IPC: 0.80166 (Simulation time: 0 hr 48 min 8 sec) 
Heartbeat CPU 0 instructions: 50000001 cycles: 38031338 heartbeat IPC: 0.811364 cumulative IPC: 0.805514 (Simulation time: 0 hr 57 min 29 sec) 
Finished CPU 0 instructions: 25000002 cycles: 31036108 cumulative IPC: 0.805513 (Simulation time: 0 hr 57 min 29 sec) 

ChampSim completed all CPUs

Region of Interest Statistics

CPU 0 cumulative IPC: 0.805513 instructions: 25000002 cycles: 31036108
ITLB TOTAL     ACCESS:    4054516  HIT:    4041377  MISS:      13139  HIT %:    99.6759  MISS %:   0.324058   MPKI: 0.52556
ITLB LOAD TRANSLATION ACCESS:    4054516  HIT:    4041377  MISS:      13139  HIT %:    99.6759  MISS %:   0.324058   MPKI: 0.52556
ITLB PREFETCH  REQUESTED:          0  ISSUED:          0  USEFUL:          0  USELESS:          0
ITLB USEFUL LOAD PREFETCHES:          0 PREFETCH ISSUED TO LOWER LEVEL:          0  ACCURACY: -nan
ITLB TIMELY PREFETCHES:          0 LATE PREFETCHES: 0 DROPPED PREFETCHES: 0
ITLB PREFETCHES SAME FILL-ORIGIN LEVEL: 0 DIFFERENT FILL-ORIGIN LEVEL: 0
ITLB AVERAGE MISS LATENCY: 9.77213 cycles
ITLB RQ	ACCESS:    4779184	FORWARD:          0	MERGED:     720383	TO_CACHE:    4058801

DTLB TOTAL     ACCESS:    5127689  HIT:    4901876  MISS:     225813  HIT %:    95.5962  MISS %:     4.4038   MPKI: 9.03252
DTLB LOAD TRANSLATION ACCESS:    5127689  HIT:    4901876  MISS:     225813  HIT %:    95.5962  MISS %:     4.4038   MPKI: 9.03252
DTLB PREFETCH  REQUESTED:          0  ISSUED:          0  USEFUL:          0  USELESS:          0
DTLB USEFUL LOAD PREFETCHES:          0 PREFETCH ISSUED TO LOWER LEVEL:          0  ACCURACY: -nan
DTLB TIMELY PREFETCHES:          0 LATE PREFETCHES: 0 DROPPED PREFETCHES: 0
DTLB PREFETCHES SAME FILL-ORIGIN LEVEL: 0 DIFFERENT FILL-ORIGIN LEVEL: 0
DTLB AVERAGE MISS LATENCY: 10.284 cycles
DTLB RQ	ACCESS:    6872351	FORWARD:          0	MERGED:    1720236	TO_CACHE:    5152115

STLB TOTAL     ACCESS:     238952  HIT:     228376  MISS:      10576  HIT %:     95.574  MISS %:    4.42599   MPKI: 0.42304
STLB LOAD TRANSLATION ACCESS:     238952  HIT:     228376  MISS:      10576  HIT %:     95.574  MISS %:    4.42599   MPKI: 0.42304
STLB PREFETCH  REQUESTED:          0  ISSUED:          0  USEFUL:          0  USELESS:          0
STLB USEFUL LOAD PREFETCHES:          0 PREFETCH ISSUED TO LOWER LEVEL:          0  ACCURACY: -nan
STLB TIMELY PREFETCHES:          0 LATE PREFETCHES: 0 DROPPED PREFETCHES: 0
STLB PREFETCHES SAME FILL-ORIGIN LEVEL: 0 DIFFERENT FILL-ORIGIN LEVEL: 0
STLB AVERAGE MISS LATENCY: 28.3245 cycles
STLB RQ	ACCESS:     238952	FORWARD:          0	MERGED:          0	TO_CACHE:     238952

STLB Hit, L1D data hit: 0
STLB Hit, L2C data hit: 0
STLB Hit, LLC data hit: 0
STLB Hit, LLC data miss: 0
STLB STLB hints to L2: 0
L1D TOTAL     ACCESS:    6872350  HIT:    6872350  MISS:          0  HIT %:        100  MISS %:          0   MPKI: 0
L1D LOAD      ACCESS:    3883269  HIT:    3883269  MISS:          0  HIT %:        100  MISS %:          0   MPKI: 0
L1D RFO       ACCESS:    2989081  HIT:    2989081  MISS:          0  HIT %:        100  MISS %:          0   MPKI: 0
L1D PREFETCH  REQUESTED:          0  ISSUED:          0  USEFUL:          0  USELESS:          0
L1D USEFUL LOAD PREFETCHES:          0 PREFETCH ISSUED TO LOWER LEVEL:          0  ACCURACY: -nan
L1D TIMELY PREFETCHES:          0 LATE PREFETCHES: 0 DROPPED PREFETCHES: 0
L1D PREFETCHES SAME FILL-ORIGIN LEVEL: 0 DIFFERENT FILL-ORIGIN LEVEL: 0
L1D AVERAGE MISS LATENCY: -nan cycles
L1D RQ	ACCESS:    6199968	FORWARD:          0	MERGED:    2301559	TO_CACHE:    3883269
L1D WQ	ACCESS:    3020227	FORWARD:      15140	MERGED:      31145	TO_CACHE:    2989082

L1D UNIQUE REGIONS ACCESSED: 0
L1D REGIONS CONFLICTS: 0
L1D Cross Page Prefetch Requests: 0
L1D Same Page Prefetch Requests: 0
L1D ROI Sum of L1D PQ occupancy: 0
L1D PREFETCHES PUSHED FROM L2C: 0
L1I TOTAL     ACCESS:    4755964  HIT:    4677503  MISS:      78461  HIT %:    98.3503  MISS %:    1.64974   MPKI: 3.13844
L1I LOAD      ACCESS:    4755964  HIT:    4677503  MISS:      78461  HIT %:    98.3503  MISS %:    1.64974   MPKI: 3.13844
L1I PREFETCH  REQUESTED:          0  ISSUED:          0  USEFUL:          0  USELESS:          0
L1I USEFUL LOAD PREFETCHES:          0 PREFETCH ISSUED TO LOWER LEVEL:          0  ACCURACY: -nan
L1I TIMELY PREFETCHES:          0 LATE PREFETCHES: 0 DROPPED PREFETCHES: 0
L1I PREFETCHES SAME FILL-ORIGIN LEVEL: 0 DIFFERENT FILL-ORIGIN LEVEL: 0
L1I AVERAGE MISS LATENCY: 14.0676 cycles
L1I RQ	ACCESS:    7553630	FORWARD:          0	MERGED:    2774446	TO_CACHE:    4779184

BTB TOTAL     ACCESS:    3698504  HIT:    3489917  MISS:     208587  HIT %:    94.3602  MISS %:    5.63977   MPKI: 8.34348
BTB BRANCH_DIRECT_JUMP	ACCESS:     286325  HIT:     285972  MISS:        353
BTB BRANCH_INDIRECT	ACCESS:    1569548  HIT:    1500668  MISS:      68880
BTB BRANCH_CONDITIONAL	ACCESS:     896831  HIT:     896299  MISS:        532
BTB BRANCH_DIRECT_CALL	ACCESS:     416654  HIT:     415952  MISS:        702
BTB BRANCH_INDIRECT_CALL	ACCESS:      56246  HIT:      32136  MISS:      24110
BTB BRANCH_RETURN	ACCESS:     472900  HIT:     358890  MISS:     114010
BTB BRANCH_OTHER ACCESS:          0  HIT:          0  MISS:          0

L2C TOTAL     ACCESS:      93543  HIT:      93498  MISS:         45  HIT %:    99.9519  MISS %:  0.0481062   MPKI: 0.0018
L2C LOAD      ACCESS:      78461  HIT:      78455  MISS:          6  HIT %:    99.9924  MISS %: 0.00764711   MPKI: 0.00024
L2C DATA LOAD MPKI: 0
L2C INSTRUCTION LOAD MPKI: 0.00024
L2C LOAD TRANSLATION ACCESS:      15082  HIT:      15043  MISS:         39  HIT %:    99.7414  MISS %:   0.258586   MPKI: 0.00156
L2C PREFETCH  REQUESTED:          0  ISSUED:          0  USEFUL:          0  USELESS:          0
L2C USEFUL LOAD PREFETCHES:          0 PREFETCH ISSUED TO LOWER LEVEL:          0  ACCURACY: -nan
L2C TIMELY PREFETCHES:          0 LATE PREFETCHES: 0 DROPPED PREFETCHES: 0
L2C PREFETCHES SAME FILL-ORIGIN LEVEL: 0 DIFFERENT FILL-ORIGIN LEVEL: 0
L2C AVERAGE MISS LATENCY: 188.667 cycles
L2C RQ	ACCESS:      93543	FORWARD:          0	MERGED:          0	TO_CACHE:      93543

L2C Instructions Evicting Data 0
L2C Translations Evicting Data 0
L2C Data Evicting Data 0
L2C Instructions Evicting Instructions 3
L2C Translations Evicting Instructions 0
L2C Data Evicting Instructions 0
L2C Instructions Evicting Translations 0
L2C Translations Evicting Translations 0
L2C Data Evicting Translations 0
L2C Dense regions hint from L2: 0
PSCL5 TOTAL     ACCESS:      10576  HIT:      10576  MISS:          0  HIT %:        100  MISS %:          0   MPKI: 0
PSCL5 LOAD TRANSLATION ACCESS:      10576  HIT:      10576  MISS:          0  HIT %:        100  MISS %:          0   MPKI: 0
PSCL5 PREFETCH  REQUESTED:          0  ISSUED:          0  USEFUL:          0  USELESS:          0
PSCL5 USEFUL LOAD PREFETCHES:          0 PREFETCH ISSUED TO LOWER LEVEL:          0  ACCURACY: -nan
PSCL5 TIMELY PREFETCHES:          0 LATE PREFETCHES: 0 DROPPED PREFETCHES: 0
PSCL5 PREFETCHES SAME FILL-ORIGIN LEVEL: 0 DIFFERENT FILL-ORIGIN LEVEL: 0

PSCL4 TOTAL     ACCESS:      10255  HIT:      10237  MISS:         18  HIT %:    99.8245  MISS %:   0.175524   MPKI: 0.00072
PSCL4 LOAD TRANSLATION ACCESS:      10255  HIT:      10237  MISS:         18  HIT %:    99.8245  MISS %:   0.175524   MPKI: 0.00072
PSCL4 PREFETCH  REQUESTED:          0  ISSUED:          0  USEFUL:          0  USELESS:          0
PSCL4 USEFUL LOAD PREFETCHES:          0 PREFETCH ISSUED TO LOWER LEVEL:          0  ACCURACY: -nan
PSCL4 TIMELY PREFETCHES:          0 LATE PREFETCHES: 0 DROPPED PREFETCHES: 0
PSCL4 PREFETCHES SAME FILL-ORIGIN LEVEL: 0 DIFFERENT FILL-ORIGIN LEVEL: 0

PSCL3 TOTAL     ACCESS:      10557  HIT:      10491  MISS:         66  HIT %:    99.3748  MISS %:   0.625178   MPKI: 0.00264
PSCL3 LOAD TRANSLATION ACCESS:      10557  HIT:      10491  MISS:         66  HIT %:    99.3748  MISS %:   0.625178   MPKI: 0.00264
PSCL3 PREFETCH  REQUESTED:          0  ISSUED:          0  USEFUL:          0  USELESS:          0
PSCL3 USEFUL LOAD PREFETCHES:          0 PREFETCH ISSUED TO LOWER LEVEL:          0  ACCURACY: -nan
PSCL3 TIMELY PREFETCHES:          0 LATE PREFETCHES: 0 DROPPED PREFETCHES: 0
PSCL3 PREFETCHES SAME FILL-ORIGIN LEVEL: 0 DIFFERENT FILL-ORIGIN LEVEL: 0

PSCL2 TOTAL     ACCESS:      10576  HIT:       6138  MISS:       4438  HIT %:    58.0371  MISS %:    41.9629   MPKI: 0.17752
PSCL2 LOAD TRANSLATION ACCESS:      10576  HIT:       6138  MISS:       4438  HIT %:    58.0371  MISS %:    41.9629   MPKI: 0.17752
PSCL2 PREFETCH  REQUESTED:          0  ISSUED:          0  USEFUL:          0  USELESS:          0
PSCL2 USEFUL LOAD PREFETCHES:          0 PREFETCH ISSUED TO LOWER LEVEL:          0  ACCURACY: -nan
PSCL2 TIMELY PREFETCHES:          0 LATE PREFETCHES: 0 DROPPED PREFETCHES: 0
PSCL2 PREFETCHES SAME FILL-ORIGIN LEVEL: 0 DIFFERENT FILL-ORIGIN LEVEL: 0

LLC TOTAL     ACCESS:         45  HIT:          3  MISS:         42  HIT %:    6.66667  MISS %:    93.3333   MPKI: 0.00168
LLC LOAD      ACCESS:          6  HIT:          3  MISS:          3  HIT %:         50  MISS %:         50   MPKI: 0.00012
LLC LOAD TRANSLATION ACCESS:         39  HIT:          0  MISS:         39  HIT %:          0  MISS %:        100   MPKI: 0.00156
LLC PREFETCH  REQUESTED:          0  ISSUED:          0  USEFUL:          0  USELESS:          0
LLC USEFUL LOAD PREFETCHES:          0 PREFETCH ISSUED TO LOWER LEVEL:          0  ACCURACY: -nan
LLC TIMELY PREFETCHES:          0 LATE PREFETCHES: 0 DROPPED PREFETCHES: 0
LLC PREFETCHES SAME FILL-ORIGIN LEVEL: 0 DIFFERENT FILL-ORIGIN LEVEL: 0
LLC AVERAGE MISS LATENCY: 170 cycles
LLC RQ	ACCESS:         45	FORWARD:          0	MERGED:          0	TO_CACHE:         45

LLC Dense regions hint to LLC: 0

RAW hits: 284398
Loads Generated: 6484367
Loads sent to L1D: 6199968
Stores Generated: 3020224
Stores sent to L1D: 3020227
Major fault: 0 Minor fault: 6162
Allocated PAGES: 6162

DRAM Statistics
 CHANNEL 0
 RQ ROW_BUFFER_HIT:          0  ROW_BUFFER_MISS:         42
 DBUS_CONGESTED:          0
 WQ ROW_BUFFER_HIT:          0  ROW_BUFFER_MISS:          0  FULL:          0

 AVG_CONGESTED_CYCLE: -
 All warmup complete: 2
Channel 0 Bank busy for read cycles: 0
Channel 0 Bank busy for write cycles: 0
Channel 0
Rank 0
0banks busy for read cycles: 31029956
0banks busy for write cycles: 0
1banks busy for read cycles: 6006
1banks busy for write cycles: 0
2banks busy for read cycles: 147
2banks busy for write cycles: 0
3banks busy for read cycles: 0
3banks busy for write cycles: 0
4banks busy for read cycles: 0
4banks busy for write cycles: 0
5banks busy for read cycles: 0
5banks busy for write cycles: 0
6banks busy for read cycles: 0
6banks busy for write cycles: 0
7banks busy for read cycles: 0
7banks busy for write cycles: 0
8banks busy for read cycles: 0
8banks busy for write cycles: 0

CPU 0 Branch Prediction Accuracy: 99.7683% MPKI: 0.4234 Average ROB Occupancy at Mispredict: 14.6674
Branch types
NOT_BRANCH: 20431624 81.7265%
BRANCH_DIRECT_JUMP: 286325 1.1453%
BRANCH_INDIRECT: 1569548 6.27819%
BRANCH_CONDITIONAL: 1766381 7.06552%
BRANCH_DIRECT_CALL: 416654 1.66662%
BRANCH_INDIRECT_CALL: 56246 0.224984%
BRANCH_RETURN: 472900 1.8916%
BRANCH_OTHER: 0 0%

DRAM PAGES: 1048576
Allocated PAGES: 6162
