
*** ChampSim Multicore Out-of-Order Simulator ***

Warmup Instructions: 25000000
Simulation Instructions: 25000000
Number of CPUs: 1
LLC sets: 2048
LLC ways: 16
Off-chip DRAM Size: 4096 MB Channels: 1 Width: 64-bit Data Rate: 6400 MT/s
CPU 0 runs ../../traces/spec2k17/srv_62.champsimtrace.xz
.xz
BTB has LRU replacement policy
ITLB has LRU replacement policy
DTLB has LRU replacement policy
STLB has LRU replacement policy
L1I has LRU replacement policy
L1D has LRU replacement policy
Initialize SRRIP state for L2C
Initialize DRRIP state for LLC
Heartbeat CPU 0 instructions: 10000003 cycles: 2740802 heartbeat IPC: 3.64857 cumulative IPC: 3.64857 (Simulation time: 0 hr 10 min 23 sec) 
Heartbeat CPU 0 instructions: 20000002 cycles: 5474053 heartbeat IPC: 3.65865 cumulative IPC: 3.6536 (Simulation time: 0 hr 21 min 11 sec) 

Warmup complete CPU 0 instructions: 25000003 cycles: 6840706 (Simulation time: 0 hr 26 min 22 sec) 

Heartbeat CPU 0 instructions: 30000002 cycles: 16125464 heartbeat IPC: 0.938843 cumulative IPC: 0.538517 (Simulation time: 0 hr 33 min 13 sec) 
*** Reached end of trace for Core: 0 Repeating trace: ../../traces/spec2k17/srv_62.champsimtrace.xz
Heartbeat CPU 0 instructions: 40000001 cycles: 34840735 heartbeat IPC: 0.534323 cumulative IPC: 0.535714 (Simulation time: 0 hr 46 min 15 sec) 
Heartbeat CPU 0 instructions: 50000000 cycles: 53759123 heartbeat IPC: 0.528586 cumulative IPC: 0.53284 (Simulation time: 0 hr 56 min 46 sec) 
Finished CPU 0 instructions: 25000000 cycles: 46918432 cumulative IPC: 0.53284 (Simulation time: 0 hr 56 min 46 sec) 

ChampSim completed all CPUs

Region of Interest Statistics

CPU 0 cumulative IPC: 0.53284 instructions: 25000000 cycles: 46918432
ITLB TOTAL     ACCESS:    3943048  HIT:    3846386  MISS:      96662  HIT %:    97.5485  MISS %:    2.45145   MPKI: 3.86648
ITLB LOAD TRANSLATION ACCESS:    3943048  HIT:    3846386  MISS:      96662  HIT %:    97.5485  MISS %:    2.45145   MPKI: 3.86648
ITLB PREFETCH  REQUESTED:          0  ISSUED:          0  USEFUL:          0  USELESS:          0
ITLB USEFUL LOAD PREFETCHES:          0 PREFETCH ISSUED TO LOWER LEVEL:          0  ACCURACY: -nan
ITLB TIMELY PREFETCHES:          0 LATE PREFETCHES: 0 DROPPED PREFETCHES: 0
ITLB PREFETCHES SAME FILL-ORIGIN LEVEL: 0 DIFFERENT FILL-ORIGIN LEVEL: 0
ITLB AVERAGE MISS LATENCY: 12.4923 cycles
ITLB RQ	ACCESS:    4800946	FORWARD:          0	MERGED:     833695	TO_CACHE:    3967251

DTLB TOTAL     ACCESS:    4691328  HIT:    4369205  MISS:     322123  HIT %:    93.1337  MISS %:    6.86635   MPKI: 12.8849
DTLB LOAD TRANSLATION ACCESS:    4691328  HIT:    4369205  MISS:     322123  HIT %:    93.1337  MISS %:    6.86635   MPKI: 12.8849
DTLB PREFETCH  REQUESTED:          0  ISSUED:          0  USEFUL:          0  USELESS:          0
DTLB USEFUL LOAD PREFETCHES:          0 PREFETCH ISSUED TO LOWER LEVEL:          0  ACCURACY: -nan
DTLB TIMELY PREFETCHES:          0 LATE PREFETCHES: 0 DROPPED PREFETCHES: 0
DTLB PREFETCHES SAME FILL-ORIGIN LEVEL: 0 DIFFERENT FILL-ORIGIN LEVEL: 0
DTLB AVERAGE MISS LATENCY: 12.2413 cycles
DTLB RQ	ACCESS:    5994867	FORWARD:          0	MERGED:    1285639	TO_CACHE:    4709228

STLB TOTAL     ACCESS:     418785  HIT:     375825  MISS:      42960  HIT %:    89.7418  MISS %:    10.2582   MPKI: 1.7184
STLB LOAD TRANSLATION ACCESS:     418785  HIT:     375825  MISS:      42960  HIT %:    89.7418  MISS %:    10.2582   MPKI: 1.7184
STLB PREFETCH  REQUESTED:          0  ISSUED:          0  USEFUL:          0  USELESS:          0
STLB USEFUL LOAD PREFETCHES:          0 PREFETCH ISSUED TO LOWER LEVEL:          0  ACCURACY: -nan
STLB TIMELY PREFETCHES:          0 LATE PREFETCHES: 0 DROPPED PREFETCHES: 0
STLB PREFETCHES SAME FILL-ORIGIN LEVEL: 0 DIFFERENT FILL-ORIGIN LEVEL: 0
STLB AVERAGE MISS LATENCY: 31.9027 cycles
STLB RQ	ACCESS:     418784	FORWARD:          0	MERGED:          0	TO_CACHE:     418784

STLB Hit, L1D data hit: 0
STLB Hit, L2C data hit: 0
STLB Hit, LLC data hit: 0
STLB Hit, LLC data miss: 0
STLB STLB hints to L2: 0
L1D TOTAL     ACCESS:    5994871  HIT:    5994871  MISS:          0  HIT %:        100  MISS %:          0   MPKI: 0
L1D LOAD      ACCESS:    3493397  HIT:    3493397  MISS:          0  HIT %:        100  MISS %:          0   MPKI: 0
L1D RFO       ACCESS:    2501474  HIT:    2501474  MISS:          0  HIT %:        100  MISS %:          0   MPKI: 0
L1D PREFETCH  REQUESTED:          0  ISSUED:          0  USEFUL:          0  USELESS:          0
L1D USEFUL LOAD PREFETCHES:          0 PREFETCH ISSUED TO LOWER LEVEL:          0  ACCURACY: -nan
L1D TIMELY PREFETCHES:          0 LATE PREFETCHES: 0 DROPPED PREFETCHES: 0
L1D PREFETCHES SAME FILL-ORIGIN LEVEL: 0 DIFFERENT FILL-ORIGIN LEVEL: 0
L1D AVERAGE MISS LATENCY: -nan cycles
L1D RQ	ACCESS:    5311492	FORWARD:          0	MERGED:    1787310	TO_CACHE:    3493396
L1D WQ	ACCESS:    2532571	FORWARD:      30786	MERGED:      31100	TO_CACHE:    2501471

L1D UNIQUE REGIONS ACCESSED: 0
L1D REGIONS CONFLICTS: 0
L1D Cross Page Prefetch Requests: 0
L1D Same Page Prefetch Requests: 0
L1D ROI Sum of L1D PQ occupancy: 0
L1D PREFETCHES PUSHED FROM L2C: 0
L1I TOTAL     ACCESS:    4578177  HIT:    3937724  MISS:     640453  HIT %:    86.0107  MISS %:    13.9893   MPKI: 25.6181
L1I LOAD      ACCESS:    4578177  HIT:    3937724  MISS:     640453  HIT %:    86.0107  MISS %:    13.9893   MPKI: 25.6181
L1I PREFETCH  REQUESTED:          0  ISSUED:          0  USEFUL:          0  USELESS:          0
L1I USEFUL LOAD PREFETCHES:          0 PREFETCH ISSUED TO LOWER LEVEL:          0  ACCURACY: -nan
L1I TIMELY PREFETCHES:          0 LATE PREFETCHES: 0 DROPPED PREFETCHES: 0
L1I PREFETCHES SAME FILL-ORIGIN LEVEL: 0 DIFFERENT FILL-ORIGIN LEVEL: 0
L1I AVERAGE MISS LATENCY: 17.8596 cycles
L1I RQ	ACCESS:    7155364	FORWARD:          0	MERGED:    2354418	TO_CACHE:    4800946

BTB TOTAL     ACCESS:    2778822  HIT:    2228743  MISS:     550079  HIT %:    80.2046  MISS %:    19.7954   MPKI: 22.0032
BTB BRANCH_DIRECT_JUMP	ACCESS:     216569  HIT:     185566  MISS:      31003
BTB BRANCH_INDIRECT	ACCESS:    1183835  HIT:     915068  MISS:     268767
BTB BRANCH_CONDITIONAL	ACCESS:     588716  HIT:     537686  MISS:      51030
BTB BRANCH_DIRECT_CALL	ACCESS:     309352  HIT:     248906  MISS:      60446
BTB BRANCH_INDIRECT_CALL	ACCESS:      85467  HIT:      80617  MISS:       4850
BTB BRANCH_RETURN	ACCESS:     394883  HIT:     260900  MISS:     133983
BTB BRANCH_OTHER ACCESS:          0  HIT:          0  MISS:          0

L2C TOTAL     ACCESS:     697164  HIT:     608310  MISS:      88854  HIT %:    87.2549  MISS %:    12.7451   MPKI: 3.55416
L2C LOAD      ACCESS:     640453  HIT:     560520  MISS:      79933  HIT %:    87.5193  MISS %:    12.4807   MPKI: 3.19732
L2C DATA LOAD MPKI: 0
L2C INSTRUCTION LOAD MPKI: 3.19732
L2C LOAD TRANSLATION ACCESS:      56711  HIT:      47790  MISS:       8921  HIT %:    84.2694  MISS %:    15.7306   MPKI: 0.35684
L2C PREFETCH  REQUESTED:          0  ISSUED:          0  USEFUL:          0  USELESS:          0
L2C USEFUL LOAD PREFETCHES:          0 PREFETCH ISSUED TO LOWER LEVEL:          0  ACCURACY: -nan
L2C TIMELY PREFETCHES:          0 LATE PREFETCHES: 0 DROPPED PREFETCHES: 0
L2C PREFETCHES SAME FILL-ORIGIN LEVEL: 0 DIFFERENT FILL-ORIGIN LEVEL: 0
L2C AVERAGE MISS LATENCY: 31.0456 cycles
L2C RQ	ACCESS:     697164	FORWARD:          0	MERGED:          0	TO_CACHE:     697164

L2C Instructions Evicting Data 0
L2C Translations Evicting Data 0
L2C Data Evicting Data 0
L2C Instructions Evicting Instructions 72473
L2C Translations Evicting Instructions 7423
L2C Data Evicting Instructions 0
L2C Instructions Evicting Translations 7460
L2C Translations Evicting Translations 1490
L2C Data Evicting Translations 0
L2C Dense regions hint from L2: 0
PSCL5 TOTAL     ACCESS:      42959  HIT:      42959  MISS:          0  HIT %:        100  MISS %:          0   MPKI: 0
PSCL5 LOAD TRANSLATION ACCESS:      42959  HIT:      42959  MISS:          0  HIT %:        100  MISS %:          0   MPKI: 0
PSCL5 PREFETCH  REQUESTED:          0  ISSUED:          0  USEFUL:          0  USELESS:          0
PSCL5 USEFUL LOAD PREFETCHES:          0 PREFETCH ISSUED TO LOWER LEVEL:          0  ACCURACY: -nan
PSCL5 TIMELY PREFETCHES:          0 LATE PREFETCHES: 0 DROPPED PREFETCHES: 0
PSCL5 PREFETCHES SAME FILL-ORIGIN LEVEL: 0 DIFFERENT FILL-ORIGIN LEVEL: 0

PSCL4 TOTAL     ACCESS:      36625  HIT:      36583  MISS:         42  HIT %:    99.8853  MISS %:   0.114676   MPKI: 0.00168
PSCL4 LOAD TRANSLATION ACCESS:      36625  HIT:      36583  MISS:         42  HIT %:    99.8853  MISS %:   0.114676   MPKI: 0.00168
PSCL4 PREFETCH  REQUESTED:          0  ISSUED:          0  USEFUL:          0  USELESS:          0
PSCL4 USEFUL LOAD PREFETCHES:          0 PREFETCH ISSUED TO LOWER LEVEL:          0  ACCURACY: -nan
PSCL4 TIMELY PREFETCHES:          0 LATE PREFETCHES: 0 DROPPED PREFETCHES: 0
PSCL4 PREFETCHES SAME FILL-ORIGIN LEVEL: 0 DIFFERENT FILL-ORIGIN LEVEL: 0

PSCL3 TOTAL     ACCESS:      42829  HIT:      42704  MISS:        125  HIT %:    99.7081  MISS %:   0.291858   MPKI: 0.005
PSCL3 LOAD TRANSLATION ACCESS:      42829  HIT:      42704  MISS:        125  HIT %:    99.7081  MISS %:   0.291858   MPKI: 0.005
PSCL3 PREFETCH  REQUESTED:          0  ISSUED:          0  USEFUL:          0  USELESS:          0
PSCL3 USEFUL LOAD PREFETCHES:          0 PREFETCH ISSUED TO LOWER LEVEL:          0  ACCURACY: -nan
PSCL3 TIMELY PREFETCHES:          0 LATE PREFETCHES: 0 DROPPED PREFETCHES: 0
PSCL3 PREFETCHES SAME FILL-ORIGIN LEVEL: 0 DIFFERENT FILL-ORIGIN LEVEL: 0

PSCL2 TOTAL     ACCESS:      42960  HIT:      29368  MISS:      13592  HIT %:    68.3613  MISS %:    31.6387   MPKI: 0.54368
PSCL2 LOAD TRANSLATION ACCESS:      42960  HIT:      29368  MISS:      13592  HIT %:    68.3613  MISS %:    31.6387   MPKI: 0.54368
PSCL2 PREFETCH  REQUESTED:          0  ISSUED:          0  USEFUL:          0  USELESS:          0
PSCL2 USEFUL LOAD PREFETCHES:          0 PREFETCH ISSUED TO LOWER LEVEL:          0  ACCURACY: -nan
PSCL2 TIMELY PREFETCHES:          0 LATE PREFETCHES: 0 DROPPED PREFETCHES: 0
PSCL2 PREFETCHES SAME FILL-ORIGIN LEVEL: 0 DIFFERENT FILL-ORIGIN LEVEL: 0

LLC TOTAL     ACCESS:      88854  HIT:      88303  MISS:        551  HIT %:    99.3799  MISS %:   0.620118   MPKI: 0.02204
LLC LOAD      ACCESS:      79933  HIT:      79736  MISS:        197  HIT %:    99.7535  MISS %:   0.246456   MPKI: 0.00788
LLC LOAD TRANSLATION ACCESS:       8921  HIT:       8567  MISS:        354  HIT %:    96.0318  MISS %:    3.96817   MPKI: 0.01416
LLC PREFETCH  REQUESTED:          0  ISSUED:          0  USEFUL:          0  USELESS:          0
LLC USEFUL LOAD PREFETCHES:          0 PREFETCH ISSUED TO LOWER LEVEL:          0  ACCURACY: -nan
LLC TIMELY PREFETCHES:          0 LATE PREFETCHES: 0 DROPPED PREFETCHES: 0
LLC PREFETCHES SAME FILL-ORIGIN LEVEL: 0 DIFFERENT FILL-ORIGIN LEVEL: 0
LLC AVERAGE MISS LATENCY: 167.118 cycles
LLC RQ	ACCESS:      88854	FORWARD:          0	MERGED:          0	TO_CACHE:      88854

LLC Dense regions hint to LLC: 0

RAW hits: 307598
Loads Generated: 5619090
Loads sent to L1D: 5311492
Stores Generated: 2532545
Stores sent to L1D: 2532571
Major fault: 0 Minor fault: 5946
Allocated PAGES: 5946

DRAM Statistics
 CHANNEL 0
 RQ ROW_BUFFER_HIT:         16  ROW_BUFFER_MISS:        535
 DBUS_CONGESTED:          0
 WQ ROW_BUFFER_HIT:          0  ROW_BUFFER_MISS:          0  FULL:          0

 AVG_CONGESTED_CYCLE: -
 All warmup complete: 2
Channel 0 Bank busy for read cycles: 0
Channel 0 Bank busy for write cycles: 0
Channel 0
Rank 0
0banks busy for read cycles: 46837679
0banks busy for write cycles: 0
1banks busy for read cycles: 80458
1banks busy for write cycles: 0
2banks busy for read cycles: 296
2banks busy for write cycles: 0
3banks busy for read cycles: 0
3banks busy for write cycles: 0
4banks busy for read cycles: 0
4banks busy for write cycles: 0
5banks busy for read cycles: 0
5banks busy for write cycles: 0
6banks busy for read cycles: 0
6banks busy for write cycles: 0
7banks busy for read cycles: 0
7banks busy for write cycles: 0
8banks busy for read cycles: 0
8banks busy for write cycles: 0

CPU 0 Branch Prediction Accuracy: 99.7084% MPKI: 0.52232 Average ROB Occupancy at Mispredict: 21.0832
Branch types
NOT_BRANCH: 20521879 82.0875%
BRANCH_DIRECT_JUMP: 216569 0.866276%
BRANCH_INDIRECT: 1183835 4.73534%
BRANCH_CONDITIONAL: 2287659 9.15064%
BRANCH_DIRECT_CALL: 309352 1.23741%
BRANCH_INDIRECT_CALL: 85467 0.341868%
BRANCH_RETURN: 394883 1.57953%
BRANCH_OTHER: 0 0%

DRAM PAGES: 1048576
Allocated PAGES: 5946
