
*** ChampSim Multicore Out-of-Order Simulator ***

Warmup Instructions: 25000000
Simulation Instructions: 25000000
Number of CPUs: 1
LLC sets: 2048
LLC ways: 16
Off-chip DRAM Size: 4096 MB Channels: 1 Width: 64-bit Data Rate: 6400 MT/s
CPU 0 runs ../../traces/spec2k17/srv_14.champsimtrace.xz
.xz
BTB has LRU replacement policy
ITLB has LRU replacement policy
DTLB has LRU replacement policy
STLB has LRU replacement policy
L1I has LRU replacement policy
L1D has LRU replacement policy
Initialize SRRIP state for L2C
Initialize DRRIP state for LLC
Heartbeat CPU 0 instructions: 10000000 cycles: 2817473 heartbeat IPC: 3.54928 cumulative IPC: 3.54928 (Simulation time: 0 hr 9 min 18 sec) 
Heartbeat CPU 0 instructions: 20000000 cycles: 5628721 heartbeat IPC: 3.55714 cumulative IPC: 3.55321 (Simulation time: 0 hr 19 min 4 sec) 

Warmup complete CPU 0 instructions: 25000001 cycles: 7034440 (Simulation time: 0 hr 23 min 51 sec) 

Heartbeat CPU 0 instructions: 30000000 cycles: 22358303 heartbeat IPC: 0.597744 cumulative IPC: 0.326288 (Simulation time: 0 hr 31 min 19 sec) 
*** Reached end of trace for Core: 0 Repeating trace: ../../traces/spec2k17/srv_14.champsimtrace.xz
Heartbeat CPU 0 instructions: 40000000 cycles: 53022823 heartbeat IPC: 0.32611 cumulative IPC: 0.326169 (Simulation time: 0 hr 45 min 42 sec) 
Heartbeat CPU 0 instructions: 50000000 cycles: 83670755 heartbeat IPC: 0.326286 cumulative IPC: 0.326216 (Simulation time: 0 hr 57 min 10 sec) 
Finished CPU 0 instructions: 25000001 cycles: 76636317 cumulative IPC: 0.326216 (Simulation time: 0 hr 57 min 10 sec) 

ChampSim completed all CPUs

Region of Interest Statistics

CPU 0 cumulative IPC: 0.326216 instructions: 25000001 cycles: 76636317
ITLB TOTAL     ACCESS:    4446602  HIT:    4168947  MISS:     277655  HIT %:    93.7558  MISS %:    6.24421   MPKI: 11.1062
ITLB LOAD TRANSLATION ACCESS:    4446602  HIT:    4168947  MISS:     277655  HIT %:    93.7558  MISS %:    6.24421   MPKI: 11.1062
ITLB PREFETCH  REQUESTED:          0  ISSUED:          0  USEFUL:          0  USELESS:          0
ITLB USEFUL LOAD PREFETCHES:          0 PREFETCH ISSUED TO LOWER LEVEL:          0  ACCURACY: -nan
ITLB TIMELY PREFETCHES:          0 LATE PREFETCHES: 0 DROPPED PREFETCHES: 0
ITLB PREFETCHES SAME FILL-ORIGIN LEVEL: 0 DIFFERENT FILL-ORIGIN LEVEL: 0
ITLB AVERAGE MISS LATENCY: 9.12755 cycles
ITLB RQ	ACCESS:    5226018	FORWARD:          0	MERGED:     714034	TO_CACHE:    4511984

DTLB TOTAL     ACCESS:    5745630  HIT:    5495685  MISS:     249945  HIT %:    95.6498  MISS %:    4.35018   MPKI: 9.9978
DTLB LOAD TRANSLATION ACCESS:    5745630  HIT:    5495685  MISS:     249945  HIT %:    95.6498  MISS %:    4.35018   MPKI: 9.9978
DTLB PREFETCH  REQUESTED:          0  ISSUED:          0  USEFUL:          0  USELESS:          0
DTLB USEFUL LOAD PREFETCHES:          0 PREFETCH ISSUED TO LOWER LEVEL:          0  ACCURACY: -nan
DTLB TIMELY PREFETCHES:          0 LATE PREFETCHES: 0 DROPPED PREFETCHES: 0
DTLB PREFETCHES SAME FILL-ORIGIN LEVEL: 0 DIFFERENT FILL-ORIGIN LEVEL: 0
DTLB AVERAGE MISS LATENCY: 9.18246 cycles
DTLB RQ	ACCESS:    7582646	FORWARD:          0	MERGED:    1829765	TO_CACHE:    5752881

STLB TOTAL     ACCESS:     527600  HIT:     524046  MISS:       3554  HIT %:    99.3264  MISS %:   0.673616   MPKI: 0.14216
STLB LOAD TRANSLATION ACCESS:     527600  HIT:     524046  MISS:       3554  HIT %:    99.3264  MISS %:   0.673616   MPKI: 0.14216
STLB PREFETCH  REQUESTED:          0  ISSUED:          0  USEFUL:          0  USELESS:          0
STLB USEFUL LOAD PREFETCHES:          0 PREFETCH ISSUED TO LOWER LEVEL:          0  ACCURACY: -nan
STLB TIMELY PREFETCHES:          0 LATE PREFETCHES: 0 DROPPED PREFETCHES: 0
STLB PREFETCHES SAME FILL-ORIGIN LEVEL: 0 DIFFERENT FILL-ORIGIN LEVEL: 0
STLB AVERAGE MISS LATENCY: 21.7741 cycles
STLB RQ	ACCESS:     527600	FORWARD:          0	MERGED:          0	TO_CACHE:     527600

STLB Hit, L1D data hit: 0
STLB Hit, L2C data hit: 0
STLB Hit, LLC data hit: 0
STLB Hit, LLC data miss: 0
STLB STLB hints to L2: 0
L1D TOTAL     ACCESS:    7582644  HIT:    7582644  MISS:          0  HIT %:        100  MISS %:          0   MPKI: 0
L1D LOAD      ACCESS:    4277729  HIT:    4277729  MISS:          0  HIT %:        100  MISS %:          0   MPKI: 0
L1D RFO       ACCESS:    3304915  HIT:    3304915  MISS:          0  HIT %:        100  MISS %:          0   MPKI: 0
L1D PREFETCH  REQUESTED:          0  ISSUED:          0  USEFUL:          0  USELESS:          0
L1D USEFUL LOAD PREFETCHES:          0 PREFETCH ISSUED TO LOWER LEVEL:          0  ACCURACY: -nan
L1D TIMELY PREFETCHES:          0 LATE PREFETCHES: 0 DROPPED PREFETCHES: 0
L1D PREFETCHES SAME FILL-ORIGIN LEVEL: 0 DIFFERENT FILL-ORIGIN LEVEL: 0
L1D AVERAGE MISS LATENCY: -nan cycles
L1D RQ	ACCESS:    5822318	FORWARD:          0	MERGED:    1503248	TO_CACHE:    4277731
L1D WQ	ACCESS:    3321345	FORWARD:      41339	MERGED:      16430	TO_CACHE:    3304915

L1D UNIQUE REGIONS ACCESSED: 0
L1D REGIONS CONFLICTS: 0
L1D Cross Page Prefetch Requests: 0
L1D Same Page Prefetch Requests: 0
L1D ROI Sum of L1D PQ occupancy: 0
L1D PREFETCHES PUSHED FROM L2C: 0
L1I TOTAL     ACCESS:    5026286  HIT:    3615836  MISS:    1410450  HIT %:    71.9385  MISS %:    28.0615   MPKI: 56.418
L1I LOAD      ACCESS:    5026286  HIT:    3615836  MISS:    1410450  HIT %:    71.9385  MISS %:    28.0615   MPKI: 56.418
L1I PREFETCH  REQUESTED:          0  ISSUED:          0  USEFUL:          0  USELESS:          0
L1I USEFUL LOAD PREFETCHES:          0 PREFETCH ISSUED TO LOWER LEVEL:          0  ACCURACY: -nan
L1I TIMELY PREFETCHES:          0 LATE PREFETCHES: 0 DROPPED PREFETCHES: 0
L1I PREFETCHES SAME FILL-ORIGIN LEVEL: 0 DIFFERENT FILL-ORIGIN LEVEL: 0
L1I AVERAGE MISS LATENCY: 14.2823 cycles
L1I RQ	ACCESS:    7267430	FORWARD:          0	MERGED:    2041412	TO_CACHE:    5226018

BTB TOTAL     ACCESS:    3789592  HIT:    2193870  MISS:    1595722  HIT %:     57.892  MISS %:     42.108   MPKI: 63.8289
BTB BRANCH_DIRECT_JUMP	ACCESS:     236010  HIT:     130898  MISS:     105112
BTB BRANCH_INDIRECT	ACCESS:    1499409  HIT:     890839  MISS:     608570
BTB BRANCH_CONDITIONAL	ACCESS:     905027  HIT:     741688  MISS:     163339
BTB BRANCH_DIRECT_CALL	ACCESS:     483445  HIT:     221385  MISS:     262060
BTB BRANCH_INDIRECT_CALL	ACCESS:      91124  HIT:      43088  MISS:      48036
BTB BRANCH_RETURN	ACCESS:     574577  HIT:     165972  MISS:     408605
BTB BRANCH_OTHER ACCESS:          0  HIT:          0  MISS:          0

L2C TOTAL     ACCESS:    1414167  HIT:    1404295  MISS:       9872  HIT %:    99.3019  MISS %:   0.698079   MPKI: 0.39488
L2C LOAD      ACCESS:    1410450  HIT:    1400635  MISS:       9815  HIT %:    99.3041  MISS %:   0.695877   MPKI: 0.3926
L2C DATA LOAD MPKI: 0
L2C INSTRUCTION LOAD MPKI: 0.3926
L2C LOAD TRANSLATION ACCESS:       3717  HIT:       3660  MISS:         57  HIT %:    98.4665  MISS %:    1.53349   MPKI: 0.00228
L2C PREFETCH  REQUESTED:          0  ISSUED:          0  USEFUL:          0  USELESS:          0
L2C USEFUL LOAD PREFETCHES:          0 PREFETCH ISSUED TO LOWER LEVEL:          0  ACCURACY: -nan
L2C TIMELY PREFETCHES:          0 LATE PREFETCHES: 0 DROPPED PREFETCHES: 0
L2C PREFETCHES SAME FILL-ORIGIN LEVEL: 0 DIFFERENT FILL-ORIGIN LEVEL: 0
L2C AVERAGE MISS LATENCY: 30.231 cycles
L2C RQ	ACCESS:    1414167	FORWARD:          0	MERGED:          0	TO_CACHE:    1414167

L2C Instructions Evicting Data 0
L2C Translations Evicting Data 0
L2C Data Evicting Data 0
L2C Instructions Evicting Instructions 9762
L2C Translations Evicting Instructions 46
L2C Data Evicting Instructions 0
L2C Instructions Evicting Translations 45
L2C Translations Evicting Translations 6
L2C Data Evicting Translations 0
L2C Dense regions hint from L2: 0
PSCL5 TOTAL     ACCESS:       3554  HIT:       3554  MISS:          0  HIT %:        100  MISS %:          0   MPKI: 0
PSCL5 LOAD TRANSLATION ACCESS:       3554  HIT:       3554  MISS:          0  HIT %:        100  MISS %:          0   MPKI: 0
PSCL5 PREFETCH  REQUESTED:          0  ISSUED:          0  USEFUL:          0  USELESS:          0
PSCL5 USEFUL LOAD PREFETCHES:          0 PREFETCH ISSUED TO LOWER LEVEL:          0  ACCURACY: -nan
PSCL5 TIMELY PREFETCHES:          0 LATE PREFETCHES: 0 DROPPED PREFETCHES: 0
PSCL5 PREFETCHES SAME FILL-ORIGIN LEVEL: 0 DIFFERENT FILL-ORIGIN LEVEL: 0

PSCL4 TOTAL     ACCESS:       3334  HIT:       3329  MISS:          5  HIT %:      99.85  MISS %:    0.14997   MPKI: 0.0002
PSCL4 LOAD TRANSLATION ACCESS:       3334  HIT:       3329  MISS:          5  HIT %:      99.85  MISS %:    0.14997   MPKI: 0.0002
PSCL4 PREFETCH  REQUESTED:          0  ISSUED:          0  USEFUL:          0  USELESS:          0
PSCL4 USEFUL LOAD PREFETCHES:          0 PREFETCH ISSUED TO LOWER LEVEL:          0  ACCURACY: -nan
PSCL4 TIMELY PREFETCHES:          0 LATE PREFETCHES: 0 DROPPED PREFETCHES: 0
PSCL4 PREFETCHES SAME FILL-ORIGIN LEVEL: 0 DIFFERENT FILL-ORIGIN LEVEL: 0

PSCL3 TOTAL     ACCESS:       3490  HIT:       3485  MISS:          5  HIT %:    99.8567  MISS %:   0.143266   MPKI: 0.0002
PSCL3 LOAD TRANSLATION ACCESS:       3490  HIT:       3485  MISS:          5  HIT %:    99.8567  MISS %:   0.143266   MPKI: 0.0002
PSCL3 PREFETCH  REQUESTED:          0  ISSUED:          0  USEFUL:          0  USELESS:          0
PSCL3 USEFUL LOAD PREFETCHES:          0 PREFETCH ISSUED TO LOWER LEVEL:          0  ACCURACY: -nan
PSCL3 TIMELY PREFETCHES:          0 LATE PREFETCHES: 0 DROPPED PREFETCHES: 0
PSCL3 PREFETCHES SAME FILL-ORIGIN LEVEL: 0 DIFFERENT FILL-ORIGIN LEVEL: 0

PSCL2 TOTAL     ACCESS:       3554  HIT:       3401  MISS:        153  HIT %:     95.695  MISS %:    4.30501   MPKI: 0.00612
PSCL2 LOAD TRANSLATION ACCESS:       3554  HIT:       3401  MISS:        153  HIT %:     95.695  MISS %:    4.30501   MPKI: 0.00612
PSCL2 PREFETCH  REQUESTED:          0  ISSUED:          0  USEFUL:          0  USELESS:          0
PSCL2 USEFUL LOAD PREFETCHES:          0 PREFETCH ISSUED TO LOWER LEVEL:          0  ACCURACY: -nan
PSCL2 TIMELY PREFETCHES:          0 LATE PREFETCHES: 0 DROPPED PREFETCHES: 0
PSCL2 PREFETCHES SAME FILL-ORIGIN LEVEL: 0 DIFFERENT FILL-ORIGIN LEVEL: 0

LLC TOTAL     ACCESS:       9872  HIT:       9858  MISS:         14  HIT %:    99.8582  MISS %:   0.141815   MPKI: 0.00056
LLC LOAD      ACCESS:       9815  HIT:       9807  MISS:          8  HIT %:    99.9185  MISS %:  0.0815079   MPKI: 0.00032
LLC LOAD TRANSLATION ACCESS:         57  HIT:         51  MISS:          6  HIT %:    89.4737  MISS %:    10.5263   MPKI: 0.00024
LLC PREFETCH  REQUESTED:          0  ISSUED:          0  USEFUL:          0  USELESS:          0
LLC USEFUL LOAD PREFETCHES:          0 PREFETCH ISSUED TO LOWER LEVEL:          0  ACCURACY: -nan
LLC TIMELY PREFETCHES:          0 LATE PREFETCHES: 0 DROPPED PREFETCHES: 0
LLC PREFETCHES SAME FILL-ORIGIN LEVEL: 0 DIFFERENT FILL-ORIGIN LEVEL: 0
LLC AVERAGE MISS LATENCY: 162.857 cycles
LLC RQ	ACCESS:       9872	FORWARD:          0	MERGED:          0	TO_CACHE:       9872

LLC Dense regions hint to LLC: 0

RAW hits: 172904
Loads Generated: 5995221
Loads sent to L1D: 5822318
Stores Generated: 3321346
Stores sent to L1D: 3321345
Major fault: 0 Minor fault: 1781
Allocated PAGES: 1781

DRAM Statistics
 CHANNEL 0
 RQ ROW_BUFFER_HIT:          1  ROW_BUFFER_MISS:         13
 DBUS_CONGESTED:          0
 WQ ROW_BUFFER_HIT:          0  ROW_BUFFER_MISS:          0  FULL:          0

 AVG_CONGESTED_CYCLE: -
 All warmup complete: 2
Channel 0 Bank busy for read cycles: 0
Channel 0 Bank busy for write cycles: 0
Channel 0
Rank 0
0banks busy for read cycles: 76634318
0banks busy for write cycles: 0
1banks busy for read cycles: 2000
1banks busy for write cycles: 0
2banks busy for read cycles: 0
2banks busy for write cycles: 0
3banks busy for read cycles: 0
3banks busy for write cycles: 0
4banks busy for read cycles: 0
4banks busy for write cycles: 0
5banks busy for read cycles: 0
5banks busy for write cycles: 0
6banks busy for read cycles: 0
6banks busy for write cycles: 0
7banks busy for read cycles: 0
7banks busy for write cycles: 0
8banks busy for read cycles: 0
8banks busy for write cycles: 0

CPU 0 Branch Prediction Accuracy: 99.8501% MPKI: 0.269 Average ROB Occupancy at Mispredict: 20.4302
Branch types
NOT_BRANCH: 20512958 82.0518%
BRANCH_DIRECT_JUMP: 236010 0.94404%
BRANCH_INDIRECT: 1499409 5.99764%
BRANCH_CONDITIONAL: 1602527 6.41011%
BRANCH_DIRECT_CALL: 483445 1.93378%
BRANCH_INDIRECT_CALL: 91124 0.364496%
BRANCH_RETURN: 574577 2.29831%
BRANCH_OTHER: 0 0%

DRAM PAGES: 1048576
Allocated PAGES: 1781
