
*** ChampSim Multicore Out-of-Order Simulator ***

Warmup Instructions: 25000000
Simulation Instructions: 25000000
Number of CPUs: 1
LLC sets: 2048
LLC ways: 16
Off-chip DRAM Size: 4096 MB Channels: 1 Width: 64-bit Data Rate: 6400 MT/s
CPU 0 runs ../../traces/spec2k17/srv_30.champsimtrace.xz
.xz
BTB has LRU replacement policy
ITLB has LRU replacement policy
DTLB has LRU replacement policy
STLB has LRU replacement policy
L1I has LRU replacement policy
L1D has LRU replacement policy
Initialize SRRIP state for L2C
Initialize DRRIP state for LLC
Heartbeat CPU 0 instructions: 10000001 cycles: 2798953 heartbeat IPC: 3.57276 cumulative IPC: 3.57276 (Simulation time: 0 hr 12 min 7 sec) 
Heartbeat CPU 0 instructions: 20000002 cycles: 5595708 heartbeat IPC: 3.57557 cumulative IPC: 3.57417 (Simulation time: 0 hr 24 min 7 sec) 

Warmup complete CPU 0 instructions: 25000004 cycles: 6992390 (Simulation time: 0 hr 29 min 56 sec) 

Heartbeat CPU 0 instructions: 30000001 cycles: 13134211 heartbeat IPC: 1.32652 cumulative IPC: 0.81409 (Simulation time: 0 hr 36 min 23 sec) 
*** Reached end of trace for Core: 0 Repeating trace: ../../traces/spec2k17/srv_30.champsimtrace.xz
Heartbeat CPU 0 instructions: 40000000 cycles: 25675006 heartbeat IPC: 0.797398 cumulative IPC: 0.802885 (Simulation time: 0 hr 48 min 51 sec) 
Heartbeat CPU 0 instructions: 50000002 cycles: 38081168 heartbeat IPC: 0.806051 cumulative IPC: 0.804149 (Simulation time: 0 hr 57 min 43 sec) 
Finished CPU 0 instructions: 25000002 cycles: 31088779 cumulative IPC: 0.804149 (Simulation time: 0 hr 57 min 43 sec) 

ChampSim completed all CPUs

Region of Interest Statistics

CPU 0 cumulative IPC: 0.804149 instructions: 25000002 cycles: 31088779
ITLB TOTAL     ACCESS:    4054820  HIT:    4041538  MISS:      13282  HIT %:    99.6724  MISS %:   0.327561   MPKI: 0.53128
ITLB LOAD TRANSLATION ACCESS:    4054820  HIT:    4041538  MISS:      13282  HIT %:    99.6724  MISS %:   0.327561   MPKI: 0.53128
ITLB PREFETCH  REQUESTED:          0  ISSUED:          0  USEFUL:          0  USELESS:          0
ITLB USEFUL LOAD PREFETCHES:          0 PREFETCH ISSUED TO LOWER LEVEL:          0  ACCURACY: -nan
ITLB TIMELY PREFETCHES:          0 LATE PREFETCHES: 0 DROPPED PREFETCHES: 0
ITLB PREFETCHES SAME FILL-ORIGIN LEVEL: 0 DIFFERENT FILL-ORIGIN LEVEL: 0
ITLB AVERAGE MISS LATENCY: 9.85078 cycles
ITLB RQ	ACCESS:    4779553	FORWARD:          0	MERGED:     720363	TO_CACHE:    4059190

DTLB TOTAL     ACCESS:    5128199  HIT:    4902799  MISS:     225400  HIT %:    95.6047  MISS %:    4.39531   MPKI: 9.016
DTLB LOAD TRANSLATION ACCESS:    5128199  HIT:    4902799  MISS:     225400  HIT %:    95.6047  MISS %:    4.39531   MPKI: 9.016
DTLB PREFETCH  REQUESTED:          0  ISSUED:          0  USEFUL:          0  USELESS:          0
DTLB USEFUL LOAD PREFETCHES:          0 PREFETCH ISSUED TO LOWER LEVEL:          0  ACCURACY: -nan
DTLB TIMELY PREFETCHES:          0 LATE PREFETCHES: 0 DROPPED PREFETCHES: 0
DTLB PREFETCHES SAME FILL-ORIGIN LEVEL: 0 DIFFERENT FILL-ORIGIN LEVEL: 0
DTLB AVERAGE MISS LATENCY: 10.3123 cycles
DTLB RQ	ACCESS:    6873023	FORWARD:          0	MERGED:    1720230	TO_CACHE:    5152793

STLB TOTAL     ACCESS:     238682  HIT:     227851  MISS:      10831  HIT %:    95.4622  MISS %:    4.53784   MPKI: 0.43324
STLB LOAD TRANSLATION ACCESS:     238682  HIT:     227851  MISS:      10831  HIT %:    95.4622  MISS %:    4.53784   MPKI: 0.43324
STLB PREFETCH  REQUESTED:          0  ISSUED:          0  USEFUL:          0  USELESS:          0
STLB USEFUL LOAD PREFETCHES:          0 PREFETCH ISSUED TO LOWER LEVEL:          0  ACCURACY: -nan
STLB TIMELY PREFETCHES:          0 LATE PREFETCHES: 0 DROPPED PREFETCHES: 0
STLB PREFETCHES SAME FILL-ORIGIN LEVEL: 0 DIFFERENT FILL-ORIGIN LEVEL: 0
STLB AVERAGE MISS LATENCY: 28.3076 cycles
STLB RQ	ACCESS:     238683	FORWARD:          0	MERGED:          0	TO_CACHE:     238683

STLB Hit, L1D data hit: 0
STLB Hit, L2C data hit: 0
STLB Hit, LLC data hit: 0
STLB Hit, LLC data miss: 0
STLB STLB hints to L2: 0
L1D TOTAL     ACCESS:    6873020  HIT:    6873020  MISS:          0  HIT %:        100  MISS %:          0   MPKI: 0
L1D LOAD      ACCESS:    3882904  HIT:    3882904  MISS:          0  HIT %:        100  MISS %:          0   MPKI: 0
L1D RFO       ACCESS:    2990116  HIT:    2990116  MISS:          0  HIT %:        100  MISS %:          0   MPKI: 0
L1D PREFETCH  REQUESTED:          0  ISSUED:          0  USEFUL:          0  USELESS:          0
L1D USEFUL LOAD PREFETCHES:          0 PREFETCH ISSUED TO LOWER LEVEL:          0  ACCURACY: -nan
L1D TIMELY PREFETCHES:          0 LATE PREFETCHES: 0 DROPPED PREFETCHES: 0
L1D PREFETCHES SAME FILL-ORIGIN LEVEL: 0 DIFFERENT FILL-ORIGIN LEVEL: 0
L1D AVERAGE MISS LATENCY: -nan cycles
L1D RQ	ACCESS:    6200687	FORWARD:          0	MERGED:    2302447	TO_CACHE:    3882906
L1D WQ	ACCESS:    3021065	FORWARD:      15334	MERGED:      30948	TO_CACHE:    2990117

L1D UNIQUE REGIONS ACCESSED: 0
L1D REGIONS CONFLICTS: 0
L1D Cross Page Prefetch Requests: 0
L1D Same Page Prefetch Requests: 0
L1D ROI Sum of L1D PQ occupancy: 0
L1D PREFETCHES PUSHED FROM L2C: 0
L1I TOTAL     ACCESS:    4756218  HIT:    4677108  MISS:      79110  HIT %:    98.3367  MISS %:     1.6633   MPKI: 3.1644
L1I LOAD      ACCESS:    4756218  HIT:    4677108  MISS:      79110  HIT %:    98.3367  MISS %:     1.6633   MPKI: 3.1644
L1I PREFETCH  REQUESTED:          0  ISSUED:          0  USEFUL:          0  USELESS:          0
L1I USEFUL LOAD PREFETCHES:          0 PREFETCH ISSUED TO LOWER LEVEL:          0  ACCURACY: -nan
L1I TIMELY PREFETCHES:          0 LATE PREFETCHES: 0 DROPPED PREFETCHES: 0
L1I PREFETCHES SAME FILL-ORIGIN LEVEL: 0 DIFFERENT FILL-ORIGIN LEVEL: 0
L1I AVERAGE MISS LATENCY: 14.0762 cycles
L1I RQ	ACCESS:    7553821	FORWARD:          0	MERGED:    2774268	TO_CACHE:    4779553

BTB TOTAL     ACCESS:    3683905  HIT:    3474415  MISS:     209490  HIT %:    94.3134  MISS %:    5.68663   MPKI: 8.3796
BTB BRANCH_DIRECT_JUMP	ACCESS:     286428  HIT:     286039  MISS:        389
BTB BRANCH_INDIRECT	ACCESS:    1568406  HIT:    1499343  MISS:      69063
BTB BRANCH_CONDITIONAL	ACCESS:     883351  HIT:     882758  MISS:        593
BTB BRANCH_DIRECT_CALL	ACCESS:     416656  HIT:     415834  MISS:        822
BTB BRANCH_INDIRECT_CALL	ACCESS:      56205  HIT:      32004  MISS:      24201
BTB BRANCH_RETURN	ACCESS:     472859  HIT:     358437  MISS:     114422
BTB BRANCH_OTHER ACCESS:          0  HIT:          0  MISS:          0

L2C TOTAL     ACCESS:      94531  HIT:      94454  MISS:         77  HIT %:    99.9185  MISS %:  0.0814548   MPKI: 0.00308
L2C LOAD      ACCESS:      79110  HIT:      79081  MISS:         29  HIT %:    99.9633  MISS %:  0.0366578   MPKI: 0.00116
L2C DATA LOAD MPKI: 0
L2C INSTRUCTION LOAD MPKI: 0.00116
L2C LOAD TRANSLATION ACCESS:      15421  HIT:      15373  MISS:         48  HIT %:    99.6887  MISS %:   0.311264   MPKI: 0.00192
L2C PREFETCH  REQUESTED:          0  ISSUED:          0  USEFUL:          0  USELESS:          0
L2C USEFUL LOAD PREFETCHES:          0 PREFETCH ISSUED TO LOWER LEVEL:          0  ACCURACY: -nan
L2C TIMELY PREFETCHES:          0 LATE PREFETCHES: 0 DROPPED PREFETCHES: 0
L2C PREFETCHES SAME FILL-ORIGIN LEVEL: 0 DIFFERENT FILL-ORIGIN LEVEL: 0
L2C AVERAGE MISS LATENCY: 134.675 cycles
L2C RQ	ACCESS:      94531	FORWARD:          0	MERGED:          0	TO_CACHE:      94531

L2C Instructions Evicting Data 0
L2C Translations Evicting Data 0
L2C Data Evicting Data 0
L2C Instructions Evicting Instructions 17
L2C Translations Evicting Instructions 5
L2C Data Evicting Instructions 0
L2C Instructions Evicting Translations 4
L2C Translations Evicting Translations 3
L2C Data Evicting Translations 0
L2C Dense regions hint from L2: 0
PSCL5 TOTAL     ACCESS:      10831  HIT:      10831  MISS:          0  HIT %:        100  MISS %:          0   MPKI: 0
PSCL5 LOAD TRANSLATION ACCESS:      10831  HIT:      10831  MISS:          0  HIT %:        100  MISS %:          0   MPKI: 0
PSCL5 PREFETCH  REQUESTED:          0  ISSUED:          0  USEFUL:          0  USELESS:          0
PSCL5 USEFUL LOAD PREFETCHES:          0 PREFETCH ISSUED TO LOWER LEVEL:          0  ACCURACY: -nan
PSCL5 TIMELY PREFETCHES:          0 LATE PREFETCHES: 0 DROPPED PREFETCHES: 0
PSCL5 PREFETCHES SAME FILL-ORIGIN LEVEL: 0 DIFFERENT FILL-ORIGIN LEVEL: 0

PSCL4 TOTAL     ACCESS:      10477  HIT:      10459  MISS:         18  HIT %:    99.8282  MISS %:   0.171805   MPKI: 0.00072
PSCL4 LOAD TRANSLATION ACCESS:      10477  HIT:      10459  MISS:         18  HIT %:    99.8282  MISS %:   0.171805   MPKI: 0.00072
PSCL4 PREFETCH  REQUESTED:          0  ISSUED:          0  USEFUL:          0  USELESS:          0
PSCL4 USEFUL LOAD PREFETCHES:          0 PREFETCH ISSUED TO LOWER LEVEL:          0  ACCURACY: -nan
PSCL4 TIMELY PREFETCHES:          0 LATE PREFETCHES: 0 DROPPED PREFETCHES: 0
PSCL4 PREFETCHES SAME FILL-ORIGIN LEVEL: 0 DIFFERENT FILL-ORIGIN LEVEL: 0

PSCL3 TOTAL     ACCESS:      10806  HIT:      10747  MISS:         59  HIT %:     99.454  MISS %:   0.545993   MPKI: 0.00236
PSCL3 LOAD TRANSLATION ACCESS:      10806  HIT:      10747  MISS:         59  HIT %:     99.454  MISS %:   0.545993   MPKI: 0.00236
PSCL3 PREFETCH  REQUESTED:          0  ISSUED:          0  USEFUL:          0  USELESS:          0
PSCL3 USEFUL LOAD PREFETCHES:          0 PREFETCH ISSUED TO LOWER LEVEL:          0  ACCURACY: -nan
PSCL3 TIMELY PREFETCHES:          0 LATE PREFETCHES: 0 DROPPED PREFETCHES: 0
PSCL3 PREFETCHES SAME FILL-ORIGIN LEVEL: 0 DIFFERENT FILL-ORIGIN LEVEL: 0

PSCL2 TOTAL     ACCESS:      10831  HIT:       6306  MISS:       4525  HIT %:    58.2218  MISS %:    41.7782   MPKI: 0.181
PSCL2 LOAD TRANSLATION ACCESS:      10831  HIT:       6306  MISS:       4525  HIT %:    58.2218  MISS %:    41.7782   MPKI: 0.181
PSCL2 PREFETCH  REQUESTED:          0  ISSUED:          0  USEFUL:          0  USELESS:          0
PSCL2 USEFUL LOAD PREFETCHES:          0 PREFETCH ISSUED TO LOWER LEVEL:          0  ACCURACY: -nan
PSCL2 TIMELY PREFETCHES:          0 LATE PREFETCHES: 0 DROPPED PREFETCHES: 0
PSCL2 PREFETCHES SAME FILL-ORIGIN LEVEL: 0 DIFFERENT FILL-ORIGIN LEVEL: 0

LLC TOTAL     ACCESS:         77  HIT:         29  MISS:         48  HIT %:    37.6623  MISS %:    62.3377   MPKI: 0.00192
LLC LOAD      ACCESS:         29  HIT:         21  MISS:          8  HIT %:    72.4138  MISS %:    27.5862   MPKI: 0.00032
LLC LOAD TRANSLATION ACCESS:         48  HIT:          8  MISS:         40  HIT %:    16.6667  MISS %:    83.3333   MPKI: 0.0016
LLC PREFETCH  REQUESTED:          0  ISSUED:          0  USEFUL:          0  USELESS:          0
LLC USEFUL LOAD PREFETCHES:          0 PREFETCH ISSUED TO LOWER LEVEL:          0  ACCURACY: -nan
LLC TIMELY PREFETCHES:          0 LATE PREFETCHES: 0 DROPPED PREFETCHES: 0
LLC PREFETCHES SAME FILL-ORIGIN LEVEL: 0 DIFFERENT FILL-ORIGIN LEVEL: 0
LLC AVERAGE MISS LATENCY: 167.917 cycles
LLC RQ	ACCESS:         77	FORWARD:          0	MERGED:          0	TO_CACHE:         77

LLC Dense regions hint to LLC: 0

RAW hits: 284500
Loads Generated: 6485188
Loads sent to L1D: 6200687
Stores Generated: 3021057
Stores sent to L1D: 3021065
Major fault: 0 Minor fault: 6174
Allocated PAGES: 6174

DRAM Statistics
 CHANNEL 0
 RQ ROW_BUFFER_HIT:          1  ROW_BUFFER_MISS:         47
 DBUS_CONGESTED:          0
 WQ ROW_BUFFER_HIT:          0  ROW_BUFFER_MISS:          0  FULL:          0

 AVG_CONGESTED_CYCLE: -
 All warmup complete: 2
Channel 0 Bank busy for read cycles: 0
Channel 0 Bank busy for write cycles: 0
Channel 0
Rank 0
0banks busy for read cycles: 31081827
0banks busy for write cycles: 0
1banks busy for read cycles: 6806
1banks busy for write cycles: 0
2banks busy for read cycles: 147
2banks busy for write cycles: 0
3banks busy for read cycles: 0
3banks busy for write cycles: 0
4banks busy for read cycles: 0
4banks busy for write cycles: 0
5banks busy for read cycles: 0
5banks busy for write cycles: 0
6banks busy for read cycles: 0
6banks busy for write cycles: 0
7banks busy for read cycles: 0
7banks busy for write cycles: 0
8banks busy for read cycles: 0
8banks busy for write cycles: 0

CPU 0 Branch Prediction Accuracy: 99.7666% MPKI: 0.42636 Average ROB Occupancy at Mispredict: 14.4924
Branch types
NOT_BRANCH: 20432474 81.7299%
BRANCH_DIRECT_JUMP: 286428 1.14571%
BRANCH_INDIRECT: 1568406 6.27362%
BRANCH_CONDITIONAL: 1766630 7.06652%
BRANCH_DIRECT_CALL: 416656 1.66662%
BRANCH_INDIRECT_CALL: 56205 0.22482%
BRANCH_RETURN: 472859 1.89144%
BRANCH_OTHER: 0 0%

DRAM PAGES: 1048576
Allocated PAGES: 6174
