
*** ChampSim Multicore Out-of-Order Simulator ***

Warmup Instructions: 25000000
Simulation Instructions: 25000000
Number of CPUs: 1
LLC sets: 2048
LLC ways: 16
Off-chip DRAM Size: 4096 MB Channels: 1 Width: 64-bit Data Rate: 6400 MT/s
CPU 0 runs ../../traces/spec2k17/srv_46.champsimtrace.xz
.xz
BTB has LRU replacement policy
ITLB has LRU replacement policy
DTLB has LRU replacement policy
STLB has LRU replacement policy
L1I has LRU replacement policy
L1D has LRU replacement policy
Initialize SRRIP state for L2C
Initialize DRRIP state for LLC
Heartbeat CPU 0 instructions: 10000003 cycles: 2940998 heartbeat IPC: 3.40021 cumulative IPC: 3.40021 (Simulation time: 0 hr 12 min 26 sec) 
Heartbeat CPU 0 instructions: 20000002 cycles: 5886815 heartbeat IPC: 3.39464 cumulative IPC: 3.39742 (Simulation time: 0 hr 24 min 35 sec) 

Warmup complete CPU 0 instructions: 25000003 cycles: 7349222 (Simulation time: 0 hr 30 min 30 sec) 

Heartbeat CPU 0 instructions: 30000001 cycles: 18741333 heartbeat IPC: 0.777937 cumulative IPC: 0.4389 (Simulation time: 0 hr 37 min 38 sec) 
*** Reached end of trace for Core: 0 Repeating trace: ../../traces/spec2k17/srv_46.champsimtrace.xz
Heartbeat CPU 0 instructions: 40000001 cycles: 38499906 heartbeat IPC: 0.506109 cumulative IPC: 0.48153 (Simulation time: 0 hr 50 min 39 sec) 
Heartbeat CPU 0 instructions: 50000000 cycles: 58305778 heartbeat IPC: 0.504901 cumulative IPC: 0.490614 (Simulation time: 0 hr 58 min 12 sec) 
Finished CPU 0 instructions: 25000000 cycles: 50956606 cumulative IPC: 0.490613 (Simulation time: 0 hr 58 min 12 sec) 

ChampSim completed all CPUs

Region of Interest Statistics

CPU 0 cumulative IPC: 0.490613 instructions: 25000000 cycles: 50956606
ITLB TOTAL     ACCESS:    4345385  HIT:    4184413  MISS:     160972  HIT %:    96.2956  MISS %:    3.70444   MPKI: 6.43888
ITLB LOAD TRANSLATION ACCESS:    4345385  HIT:    4184413  MISS:     160972  HIT %:    96.2956  MISS %:    3.70444   MPKI: 6.43888
ITLB PREFETCH  REQUESTED:          0  ISSUED:          0  USEFUL:          0  USELESS:          0
ITLB USEFUL LOAD PREFETCHES:          0 PREFETCH ISSUED TO LOWER LEVEL:          0  ACCURACY: -nan
ITLB TIMELY PREFETCHES:          0 LATE PREFETCHES: 0 DROPPED PREFETCHES: 0
ITLB PREFETCHES SAME FILL-ORIGIN LEVEL: 0 DIFFERENT FILL-ORIGIN LEVEL: 0
ITLB AVERAGE MISS LATENCY: 9.24099 cycles
ITLB RQ	ACCESS:    5001828	FORWARD:          0	MERGED:     610423	TO_CACHE:    4391405

DTLB TOTAL     ACCESS:    5731270  HIT:    5580591  MISS:     150679  HIT %:    97.3709  MISS %:    2.62907   MPKI: 6.02716
DTLB LOAD TRANSLATION ACCESS:    5731270  HIT:    5580591  MISS:     150679  HIT %:    97.3709  MISS %:    2.62907   MPKI: 6.02716
DTLB PREFETCH  REQUESTED:          0  ISSUED:          0  USEFUL:          0  USELESS:          0
DTLB USEFUL LOAD PREFETCHES:          0 PREFETCH ISSUED TO LOWER LEVEL:          0  ACCURACY: -nan
DTLB TIMELY PREFETCHES:          0 LATE PREFETCHES: 0 DROPPED PREFETCHES: 0
DTLB PREFETCHES SAME FILL-ORIGIN LEVEL: 0 DIFFERENT FILL-ORIGIN LEVEL: 0
DTLB AVERAGE MISS LATENCY: 11.3584 cycles
DTLB RQ	ACCESS:    7805340	FORWARD:          0	MERGED:    2063544	TO_CACHE:    5741796

STLB TOTAL     ACCESS:     311651  HIT:     305141  MISS:       6510  HIT %:    97.9111  MISS %:    2.08888   MPKI: 0.2604
STLB LOAD TRANSLATION ACCESS:     311651  HIT:     305141  MISS:       6510  HIT %:    97.9111  MISS %:    2.08888   MPKI: 0.2604
STLB PREFETCH  REQUESTED:          0  ISSUED:          0  USEFUL:          0  USELESS:          0
STLB USEFUL LOAD PREFETCHES:          0 PREFETCH ISSUED TO LOWER LEVEL:          0  ACCURACY: -nan
STLB TIMELY PREFETCHES:          0 LATE PREFETCHES: 0 DROPPED PREFETCHES: 0
STLB PREFETCHES SAME FILL-ORIGIN LEVEL: 0 DIFFERENT FILL-ORIGIN LEVEL: 0
STLB AVERAGE MISS LATENCY: 60.1369 cycles
STLB RQ	ACCESS:     311651	FORWARD:          0	MERGED:          0	TO_CACHE:     311651

STLB Hit, L1D data hit: 0
STLB Hit, L2C data hit: 0
STLB Hit, LLC data hit: 0
STLB Hit, LLC data miss: 0
STLB STLB hints to L2: 0
L1D TOTAL     ACCESS:    7805349  HIT:    7805349  MISS:          0  HIT %:        100  MISS %:          0   MPKI: 0
L1D LOAD      ACCESS:    4786288  HIT:    4786288  MISS:          0  HIT %:        100  MISS %:          0   MPKI: 0
L1D RFO       ACCESS:    3019061  HIT:    3019061  MISS:          0  HIT %:        100  MISS %:          0   MPKI: 0
L1D PREFETCH  REQUESTED:          0  ISSUED:          0  USEFUL:          0  USELESS:          0
L1D USEFUL LOAD PREFETCHES:          0 PREFETCH ISSUED TO LOWER LEVEL:          0  ACCURACY: -nan
L1D TIMELY PREFETCHES:          0 LATE PREFETCHES: 0 DROPPED PREFETCHES: 0
L1D PREFETCHES SAME FILL-ORIGIN LEVEL: 0 DIFFERENT FILL-ORIGIN LEVEL: 0
L1D AVERAGE MISS LATENCY: -nan cycles
L1D RQ	ACCESS:    6874115	FORWARD:          0	MERGED:    2069170	TO_CACHE:    4786285
L1D WQ	ACCESS:    3072917	FORWARD:      18660	MERGED:      53862	TO_CACHE:    3019055

L1D UNIQUE REGIONS ACCESSED: 0
L1D REGIONS CONFLICTS: 0
L1D Cross Page Prefetch Requests: 0
L1D Same Page Prefetch Requests: 0
L1D ROI Sum of L1D PQ occupancy: 0
L1D PREFETCHES PUSHED FROM L2C: 0
L1I TOTAL     ACCESS:    4921053  HIT:    4315328  MISS:     605725  HIT %:    87.6912  MISS %:    12.3088   MPKI: 24.229
L1I LOAD      ACCESS:    4921053  HIT:    4315328  MISS:     605725  HIT %:    87.6912  MISS %:    12.3088   MPKI: 24.229
L1I PREFETCH  REQUESTED:          0  ISSUED:          0  USEFUL:          0  USELESS:          0
L1I USEFUL LOAD PREFETCHES:          0 PREFETCH ISSUED TO LOWER LEVEL:          0  ACCURACY: -nan
L1I TIMELY PREFETCHES:          0 LATE PREFETCHES: 0 DROPPED PREFETCHES: 0
L1I PREFETCHES SAME FILL-ORIGIN LEVEL: 0 DIFFERENT FILL-ORIGIN LEVEL: 0
L1I AVERAGE MISS LATENCY: 14.906 cycles
L1I RQ	ACCESS:    7540272	FORWARD:          0	MERGED:    2538444	TO_CACHE:    5001828

BTB TOTAL     ACCESS:    3884182  HIT:    3100157  MISS:     784025  HIT %:    79.8149  MISS %:    20.1851   MPKI: 31.361
BTB BRANCH_DIRECT_JUMP	ACCESS:     315015  HIT:     263271  MISS:      51744
BTB BRANCH_INDIRECT	ACCESS:    1620623  HIT:    1315716  MISS:     304907
BTB BRANCH_CONDITIONAL	ACCESS:     879635  HIT:     817026  MISS:      62609
BTB BRANCH_DIRECT_CALL	ACCESS:     373157  HIT:     278871  MISS:      94286
BTB BRANCH_INDIRECT_CALL	ACCESS:     161302  HIT:     117786  MISS:      43516
BTB BRANCH_RETURN	ACCESS:     534450  HIT:     307487  MISS:     226963
BTB BRANCH_OTHER ACCESS:          0  HIT:          0  MISS:          0

L2C TOTAL     ACCESS:     615683  HIT:     597491  MISS:      18192  HIT %:    97.0452  MISS %:    2.95477   MPKI: 0.72768
L2C LOAD      ACCESS:     605725  HIT:     589472  MISS:      16253  HIT %:    97.3168  MISS %:    2.68323   MPKI: 0.65012
L2C DATA LOAD MPKI: 0
L2C INSTRUCTION LOAD MPKI: 0.65012
L2C LOAD TRANSLATION ACCESS:       9958  HIT:       8019  MISS:       1939  HIT %:    80.5282  MISS %:    19.4718   MPKI: 0.07756
L2C PREFETCH  REQUESTED:          0  ISSUED:          0  USEFUL:          0  USELESS:          0
L2C USEFUL LOAD PREFETCHES:          0 PREFETCH ISSUED TO LOWER LEVEL:          0  ACCURACY: -nan
L2C TIMELY PREFETCHES:          0 LATE PREFETCHES: 0 DROPPED PREFETCHES: 0
L2C PREFETCHES SAME FILL-ORIGIN LEVEL: 0 DIFFERENT FILL-ORIGIN LEVEL: 0
L2C AVERAGE MISS LATENCY: 34.8687 cycles
L2C RQ	ACCESS:     615683	FORWARD:          0	MERGED:          0	TO_CACHE:     615683

L2C Instructions Evicting Data 0
L2C Translations Evicting Data 0
L2C Data Evicting Data 0
L2C Instructions Evicting Instructions 14866
L2C Translations Evicting Instructions 1348
L2C Data Evicting Instructions 0
L2C Instructions Evicting Translations 1359
L2C Translations Evicting Translations 421
L2C Data Evicting Translations 0
L2C Dense regions hint from L2: 0
PSCL5 TOTAL     ACCESS:       6510  HIT:       6510  MISS:          0  HIT %:        100  MISS %:          0   MPKI: 0
PSCL5 LOAD TRANSLATION ACCESS:       6510  HIT:       6510  MISS:          0  HIT %:        100  MISS %:          0   MPKI: 0
PSCL5 PREFETCH  REQUESTED:          0  ISSUED:          0  USEFUL:          0  USELESS:          0
PSCL5 USEFUL LOAD PREFETCHES:          0 PREFETCH ISSUED TO LOWER LEVEL:          0  ACCURACY: -nan
PSCL5 TIMELY PREFETCHES:          0 LATE PREFETCHES: 0 DROPPED PREFETCHES: 0
PSCL5 PREFETCHES SAME FILL-ORIGIN LEVEL: 0 DIFFERENT FILL-ORIGIN LEVEL: 0

PSCL4 TOTAL     ACCESS:       6308  HIT:       6243  MISS:         65  HIT %:    98.9696  MISS %:    1.03044   MPKI: 0.0026
PSCL4 LOAD TRANSLATION ACCESS:       6308  HIT:       6243  MISS:         65  HIT %:    98.9696  MISS %:    1.03044   MPKI: 0.0026
PSCL4 PREFETCH  REQUESTED:          0  ISSUED:          0  USEFUL:          0  USELESS:          0
PSCL4 USEFUL LOAD PREFETCHES:          0 PREFETCH ISSUED TO LOWER LEVEL:          0  ACCURACY: -nan
PSCL4 TIMELY PREFETCHES:          0 LATE PREFETCHES: 0 DROPPED PREFETCHES: 0
PSCL4 PREFETCHES SAME FILL-ORIGIN LEVEL: 0 DIFFERENT FILL-ORIGIN LEVEL: 0

PSCL3 TOTAL     ACCESS:       6041  HIT:       5116  MISS:        925  HIT %:     84.688  MISS %:     15.312   MPKI: 0.037
PSCL3 LOAD TRANSLATION ACCESS:       6041  HIT:       5116  MISS:        925  HIT %:     84.688  MISS %:     15.312   MPKI: 0.037
PSCL3 PREFETCH  REQUESTED:          0  ISSUED:          0  USEFUL:          0  USELESS:          0
PSCL3 USEFUL LOAD PREFETCHES:          0 PREFETCH ISSUED TO LOWER LEVEL:          0  ACCURACY: -nan
PSCL3 TIMELY PREFETCHES:          0 LATE PREFETCHES: 0 DROPPED PREFETCHES: 0
PSCL3 PREFETCHES SAME FILL-ORIGIN LEVEL: 0 DIFFERENT FILL-ORIGIN LEVEL: 0

PSCL2 TOTAL     ACCESS:       6510  HIT:       3989  MISS:       2521  HIT %:     61.275  MISS %:     38.725   MPKI: 0.10084
PSCL2 LOAD TRANSLATION ACCESS:       6510  HIT:       3989  MISS:       2521  HIT %:     61.275  MISS %:     38.725   MPKI: 0.10084
PSCL2 PREFETCH  REQUESTED:          0  ISSUED:          0  USEFUL:          0  USELESS:          0
PSCL2 USEFUL LOAD PREFETCHES:          0 PREFETCH ISSUED TO LOWER LEVEL:          0  ACCURACY: -nan
PSCL2 TIMELY PREFETCHES:          0 LATE PREFETCHES: 0 DROPPED PREFETCHES: 0
PSCL2 PREFETCHES SAME FILL-ORIGIN LEVEL: 0 DIFFERENT FILL-ORIGIN LEVEL: 0

LLC TOTAL     ACCESS:      18192  HIT:      17625  MISS:        567  HIT %:    96.8832  MISS %:    3.11675   MPKI: 0.02268
LLC LOAD      ACCESS:      16253  HIT:      16122  MISS:        131  HIT %:     99.194  MISS %:   0.806005   MPKI: 0.00524
LLC LOAD TRANSLATION ACCESS:       1939  HIT:       1503  MISS:        436  HIT %:    77.5142  MISS %:    22.4858   MPKI: 0.01744
LLC PREFETCH  REQUESTED:          0  ISSUED:          0  USEFUL:          0  USELESS:          0
LLC USEFUL LOAD PREFETCHES:          0 PREFETCH ISSUED TO LOWER LEVEL:          0  ACCURACY: -nan
LLC TIMELY PREFETCHES:          0 LATE PREFETCHES: 0 DROPPED PREFETCHES: 0
LLC PREFETCHES SAME FILL-ORIGIN LEVEL: 0 DIFFERENT FILL-ORIGIN LEVEL: 0
LLC AVERAGE MISS LATENCY: 155.714 cycles
LLC RQ	ACCESS:      18192	FORWARD:          0	MERGED:          0	TO_CACHE:      18192

LLC Dense regions hint to LLC: 0

RAW hits: 310610
Loads Generated: 7184725
Loads sent to L1D: 6874115
Stores Generated: 3072913
Stores sent to L1D: 3072917
Major fault: 0 Minor fault: 4769
Allocated PAGES: 4769

DRAM Statistics
 CHANNEL 0
 RQ ROW_BUFFER_HIT:         81  ROW_BUFFER_MISS:        486
 DBUS_CONGESTED:          0
 WQ ROW_BUFFER_HIT:          0  ROW_BUFFER_MISS:          0  FULL:          0

 AVG_CONGESTED_CYCLE: -
 All warmup complete: 2
Channel 0 Bank busy for read cycles: 0
Channel 0 Bank busy for write cycles: 0
Channel 0
Rank 0
0banks busy for read cycles: 50880094
0banks busy for write cycles: 0
1banks busy for read cycles: 76076
1banks busy for write cycles: 0
2banks busy for read cycles: 437
2banks busy for write cycles: 0
3banks busy for read cycles: 0
3banks busy for write cycles: 0
4banks busy for read cycles: 0
4banks busy for write cycles: 0
5banks busy for read cycles: 0
5banks busy for write cycles: 0
6banks busy for read cycles: 0
6banks busy for write cycles: 0
7banks busy for read cycles: 0
7banks busy for write cycles: 0
8banks busy for read cycles: 0
8banks busy for write cycles: 0

CPU 0 Branch Prediction Accuracy: 99.6372% MPKI: 0.63272 Average ROB Occupancy at Mispredict: 11.4261
Branch types
NOT_BRANCH: 20639755 82.559%
BRANCH_DIRECT_JUMP: 315015 1.26006%
BRANCH_INDIRECT: 1620623 6.48249%
BRANCH_CONDITIONAL: 1355319 5.42128%
BRANCH_DIRECT_CALL: 373157 1.49263%
BRANCH_INDIRECT_CALL: 161302 0.645208%
BRANCH_RETURN: 534450 2.1378%
BRANCH_OTHER: 0 0%

DRAM PAGES: 1048576
Allocated PAGES: 4769
