
*** ChampSim Multicore Out-of-Order Simulator ***

Warmup Instructions: 25000000
Simulation Instructions: 25000000
Number of CPUs: 1
LLC sets: 2048
LLC ways: 16
Off-chip DRAM Size: 4096 MB Channels: 1 Width: 64-bit Data Rate: 6400 MT/s
CPU 0 runs ../../traces/spec2k17/srv_68.champsimtrace.xz
.xz
BTB has LRU replacement policy
ITLB has LRU replacement policy
DTLB has LRU replacement policy
STLB has LRU replacement policy
L1I has LRU replacement policy
L1D has LRU replacement policy
Initialize SRRIP state for L2C
Initialize DRRIP state for LLC
Heartbeat CPU 0 instructions: 10000002 cycles: 2738553 heartbeat IPC: 3.65156 cumulative IPC: 3.65156 (Simulation time: 0 hr 10 min 15 sec) 
Heartbeat CPU 0 instructions: 20000003 cycles: 5471117 heartbeat IPC: 3.65957 cumulative IPC: 3.65556 (Simulation time: 0 hr 21 min 3 sec) 

Warmup complete CPU 0 instructions: 25000001 cycles: 6837927 (Simulation time: 0 hr 26 min 16 sec) 

Heartbeat CPU 0 instructions: 30000000 cycles: 16122543 heartbeat IPC: 0.938841 cumulative IPC: 0.538525 (Simulation time: 0 hr 32 min 59 sec) 
*** Reached end of trace for Core: 0 Repeating trace: ../../traces/spec2k17/srv_68.champsimtrace.xz
Heartbeat CPU 0 instructions: 40000003 cycles: 34866207 heartbeat IPC: 0.533514 cumulative IPC: 0.535174 (Simulation time: 0 hr 45 min 56 sec) 
Heartbeat CPU 0 instructions: 50000000 cycles: 53788452 heartbeat IPC: 0.528478 cumulative IPC: 0.532475 (Simulation time: 0 hr 56 min 34 sec) 
Finished CPU 0 instructions: 25000000 cycles: 46950527 cumulative IPC: 0.532475 (Simulation time: 0 hr 56 min 34 sec) 

ChampSim completed all CPUs

Region of Interest Statistics

CPU 0 cumulative IPC: 0.532475 instructions: 25000000 cycles: 46950527
ITLB TOTAL     ACCESS:    3895295  HIT:    3804223  MISS:      91072  HIT %:     97.662  MISS %:      2.338   MPKI: 3.64288
ITLB LOAD TRANSLATION ACCESS:    3895295  HIT:    3804223  MISS:      91072  HIT %:     97.662  MISS %:      2.338   MPKI: 3.64288
ITLB PREFETCH  REQUESTED:          0  ISSUED:          0  USEFUL:          0  USELESS:          0
ITLB USEFUL LOAD PREFETCHES:          0 PREFETCH ISSUED TO LOWER LEVEL:          0  ACCURACY: -nan
ITLB TIMELY PREFETCHES:          0 LATE PREFETCHES: 0 DROPPED PREFETCHES: 0
ITLB PREFETCHES SAME FILL-ORIGIN LEVEL: 0 DIFFERENT FILL-ORIGIN LEVEL: 0
ITLB AVERAGE MISS LATENCY: 13.2698 cycles
ITLB RQ	ACCESS:    4752317	FORWARD:          0	MERGED:     834735	TO_CACHE:    3917582

DTLB TOTAL     ACCESS:    4667556  HIT:    4368734  MISS:     298822  HIT %:    93.5979  MISS %:    6.40211   MPKI: 11.9529
DTLB LOAD TRANSLATION ACCESS:    4667556  HIT:    4368734  MISS:     298822  HIT %:    93.5979  MISS %:    6.40211   MPKI: 11.9529
DTLB PREFETCH  REQUESTED:          0  ISSUED:          0  USEFUL:          0  USELESS:          0
DTLB USEFUL LOAD PREFETCHES:          0 PREFETCH ISSUED TO LOWER LEVEL:          0  ACCURACY: -nan
DTLB TIMELY PREFETCHES:          0 LATE PREFETCHES: 0 DROPPED PREFETCHES: 0
DTLB PREFETCHES SAME FILL-ORIGIN LEVEL: 0 DIFFERENT FILL-ORIGIN LEVEL: 0
DTLB AVERAGE MISS LATENCY: 12.7964 cycles
DTLB RQ	ACCESS:    5966022	FORWARD:          0	MERGED:    1281097	TO_CACHE:    4684925

STLB TOTAL     ACCESS:     389894  HIT:     343608  MISS:      46286  HIT %:    88.1286  MISS %:    11.8714   MPKI: 1.85144
STLB LOAD TRANSLATION ACCESS:     389894  HIT:     343608  MISS:      46286  HIT %:    88.1286  MISS %:    11.8714   MPKI: 1.85144
STLB PREFETCH  REQUESTED:          0  ISSUED:          0  USEFUL:          0  USELESS:          0
STLB USEFUL LOAD PREFETCHES:          0 PREFETCH ISSUED TO LOWER LEVEL:          0  ACCURACY: -nan
STLB TIMELY PREFETCHES:          0 LATE PREFETCHES: 0 DROPPED PREFETCHES: 0
STLB PREFETCHES SAME FILL-ORIGIN LEVEL: 0 DIFFERENT FILL-ORIGIN LEVEL: 0
STLB AVERAGE MISS LATENCY: 32.6748 cycles
STLB RQ	ACCESS:     389894	FORWARD:          0	MERGED:          0	TO_CACHE:     389894

STLB Hit, L1D data hit: 0
STLB Hit, L2C data hit: 0
STLB Hit, LLC data hit: 0
STLB Hit, LLC data miss: 0
STLB STLB hints to L2: 0
L1D TOTAL     ACCESS:    5966026  HIT:    5966026  MISS:          0  HIT %:        100  MISS %:          0   MPKI: 0
L1D LOAD      ACCESS:    3505824  HIT:    3505824  MISS:          0  HIT %:        100  MISS %:          0   MPKI: 0
L1D RFO       ACCESS:    2460202  HIT:    2460202  MISS:          0  HIT %:        100  MISS %:          0   MPKI: 0
L1D PREFETCH  REQUESTED:          0  ISSUED:          0  USEFUL:          0  USELESS:          0
L1D USEFUL LOAD PREFETCHES:          0 PREFETCH ISSUED TO LOWER LEVEL:          0  ACCURACY: -nan
L1D TIMELY PREFETCHES:          0 LATE PREFETCHES: 0 DROPPED PREFETCHES: 0
L1D PREFETCHES SAME FILL-ORIGIN LEVEL: 0 DIFFERENT FILL-ORIGIN LEVEL: 0
L1D AVERAGE MISS LATENCY: -nan cycles
L1D RQ	ACCESS:    5401611	FORWARD:          0	MERGED:    1866296	TO_CACHE:    3505822
L1D WQ	ACCESS:    2493930	FORWARD:      29493	MERGED:      33730	TO_CACHE:    2460200

L1D UNIQUE REGIONS ACCESSED: 0
L1D REGIONS CONFLICTS: 0
L1D Cross Page Prefetch Requests: 0
L1D Same Page Prefetch Requests: 0
L1D ROI Sum of L1D PQ occupancy: 0
L1D PREFETCHES PUSHED FROM L2C: 0
L1I TOTAL     ACCESS:    4551873  HIT:    3962827  MISS:     589046  HIT %:    87.0593  MISS %:    12.9407   MPKI: 23.5618
L1I LOAD      ACCESS:    4551873  HIT:    3962827  MISS:     589046  HIT %:    87.0593  MISS %:    12.9407   MPKI: 23.5618
L1I PREFETCH  REQUESTED:          0  ISSUED:          0  USEFUL:          0  USELESS:          0
L1I USEFUL LOAD PREFETCHES:          0 PREFETCH ISSUED TO LOWER LEVEL:          0  ACCURACY: -nan
L1I TIMELY PREFETCHES:          0 LATE PREFETCHES: 0 DROPPED PREFETCHES: 0
L1I PREFETCHES SAME FILL-ORIGIN LEVEL: 0 DIFFERENT FILL-ORIGIN LEVEL: 0
L1I AVERAGE MISS LATENCY: 19.3695 cycles
L1I RQ	ACCESS:    7056483	FORWARD:          0	MERGED:    2304166	TO_CACHE:    4752317

BTB TOTAL     ACCESS:    2711737  HIT:    2179709  MISS:     532028  HIT %:    80.3805  MISS %:    19.6195   MPKI: 21.2811
BTB BRANCH_DIRECT_JUMP	ACCESS:     212912  HIT:     182375  MISS:      30537
BTB BRANCH_INDIRECT	ACCESS:    1177003  HIT:     918981  MISS:     258022
BTB BRANCH_CONDITIONAL	ACCESS:     558220  HIT:     508048  MISS:      50172
BTB BRANCH_DIRECT_CALL	ACCESS:     302881  HIT:     246077  MISS:      56804
BTB BRANCH_INDIRECT_CALL	ACCESS:      78801  HIT:      74285  MISS:       4516
BTB BRANCH_RETURN	ACCESS:     381920  HIT:     249943  MISS:     131977
BTB BRANCH_OTHER ACCESS:          0  HIT:          0  MISS:          0

L2C TOTAL     ACCESS:     648926  HIT:     534537  MISS:     114389  HIT %:    82.3726  MISS %:    17.6274   MPKI: 4.57556
L2C LOAD      ACCESS:     589046  HIT:     485811  MISS:     103235  HIT %:    82.4742  MISS %:    17.5258   MPKI: 4.1294
L2C DATA LOAD MPKI: 0
L2C INSTRUCTION LOAD MPKI: 4.1294
L2C LOAD TRANSLATION ACCESS:      59880  HIT:      48726  MISS:      11154  HIT %:    81.3727  MISS %:    18.6273   MPKI: 0.44616
L2C PREFETCH  REQUESTED:          0  ISSUED:          0  USEFUL:          0  USELESS:          0
L2C USEFUL LOAD PREFETCHES:          0 PREFETCH ISSUED TO LOWER LEVEL:          0  ACCURACY: -nan
L2C TIMELY PREFETCHES:          0 LATE PREFETCHES: 0 DROPPED PREFETCHES: 0
L2C PREFETCHES SAME FILL-ORIGIN LEVEL: 0 DIFFERENT FILL-ORIGIN LEVEL: 0
L2C AVERAGE MISS LATENCY: 30.8449 cycles
L2C RQ	ACCESS:     648927	FORWARD:          0	MERGED:          0	TO_CACHE:     648927

L2C Instructions Evicting Data 0
L2C Translations Evicting Data 0
L2C Data Evicting Data 0
L2C Instructions Evicting Instructions 93331
L2C Translations Evicting Instructions 9962
L2C Data Evicting Instructions 0
L2C Instructions Evicting Translations 9902
L2C Translations Evicting Translations 1184
L2C Data Evicting Translations 0
L2C Dense regions hint from L2: 0
PSCL5 TOTAL     ACCESS:      46286  HIT:      46286  MISS:          0  HIT %:        100  MISS %:          0   MPKI: 0
PSCL5 LOAD TRANSLATION ACCESS:      46286  HIT:      46286  MISS:          0  HIT %:        100  MISS %:          0   MPKI: 0
PSCL5 PREFETCH  REQUESTED:          0  ISSUED:          0  USEFUL:          0  USELESS:          0
PSCL5 USEFUL LOAD PREFETCHES:          0 PREFETCH ISSUED TO LOWER LEVEL:          0  ACCURACY: -nan
PSCL5 TIMELY PREFETCHES:          0 LATE PREFETCHES: 0 DROPPED PREFETCHES: 0
PSCL5 PREFETCHES SAME FILL-ORIGIN LEVEL: 0 DIFFERENT FILL-ORIGIN LEVEL: 0

PSCL4 TOTAL     ACCESS:      43643  HIT:      43563  MISS:         80  HIT %:    99.8167  MISS %:   0.183305   MPKI: 0.0032
PSCL4 LOAD TRANSLATION ACCESS:      43643  HIT:      43563  MISS:         80  HIT %:    99.8167  MISS %:   0.183305   MPKI: 0.0032
PSCL4 PREFETCH  REQUESTED:          0  ISSUED:          0  USEFUL:          0  USELESS:          0
PSCL4 USEFUL LOAD PREFETCHES:          0 PREFETCH ISSUED TO LOWER LEVEL:          0  ACCURACY: -nan
PSCL4 TIMELY PREFETCHES:          0 LATE PREFETCHES: 0 DROPPED PREFETCHES: 0
PSCL4 PREFETCHES SAME FILL-ORIGIN LEVEL: 0 DIFFERENT FILL-ORIGIN LEVEL: 0

PSCL3 TOTAL     ACCESS:      46045  HIT:      45795  MISS:        250  HIT %:    99.4571  MISS %:   0.542947   MPKI: 0.01
PSCL3 LOAD TRANSLATION ACCESS:      46045  HIT:      45795  MISS:        250  HIT %:    99.4571  MISS %:   0.542947   MPKI: 0.01
PSCL3 PREFETCH  REQUESTED:          0  ISSUED:          0  USEFUL:          0  USELESS:          0
PSCL3 USEFUL LOAD PREFETCHES:          0 PREFETCH ISSUED TO LOWER LEVEL:          0  ACCURACY: -nan
PSCL3 TIMELY PREFETCHES:          0 LATE PREFETCHES: 0 DROPPED PREFETCHES: 0
PSCL3 PREFETCHES SAME FILL-ORIGIN LEVEL: 0 DIFFERENT FILL-ORIGIN LEVEL: 0

PSCL2 TOTAL     ACCESS:      46286  HIT:      33018  MISS:      13268  HIT %:    71.3347  MISS %:    28.6653   MPKI: 0.53072
PSCL2 LOAD TRANSLATION ACCESS:      46286  HIT:      33018  MISS:      13268  HIT %:    71.3347  MISS %:    28.6653   MPKI: 0.53072
PSCL2 PREFETCH  REQUESTED:          0  ISSUED:          0  USEFUL:          0  USELESS:          0
PSCL2 USEFUL LOAD PREFETCHES:          0 PREFETCH ISSUED TO LOWER LEVEL:          0  ACCURACY: -nan
PSCL2 TIMELY PREFETCHES:          0 LATE PREFETCHES: 0 DROPPED PREFETCHES: 0
PSCL2 PREFETCHES SAME FILL-ORIGIN LEVEL: 0 DIFFERENT FILL-ORIGIN LEVEL: 0

LLC TOTAL     ACCESS:     114389  HIT:     113814  MISS:        575  HIT %:    99.4973  MISS %:   0.502671   MPKI: 0.023
LLC LOAD      ACCESS:     103235  HIT:     103066  MISS:        169  HIT %:    99.8363  MISS %:   0.163704   MPKI: 0.00676
LLC LOAD TRANSLATION ACCESS:      11154  HIT:      10748  MISS:        406  HIT %:    96.3601  MISS %:    3.63995   MPKI: 0.01624
LLC PREFETCH  REQUESTED:          0  ISSUED:          0  USEFUL:          0  USELESS:          0
LLC USEFUL LOAD PREFETCHES:          0 PREFETCH ISSUED TO LOWER LEVEL:          0  ACCURACY: -nan
LLC TIMELY PREFETCHES:          0 LATE PREFETCHES: 0 DROPPED PREFETCHES: 0
LLC PREFETCHES SAME FILL-ORIGIN LEVEL: 0 DIFFERENT FILL-ORIGIN LEVEL: 0
LLC AVERAGE MISS LATENCY: 165.652 cycles
LLC RQ	ACCESS:     114390	FORWARD:          0	MERGED:          0	TO_CACHE:     114390

LLC Dense regions hint to LLC: 0

RAW hits: 338001
Loads Generated: 5739612
Loads sent to L1D: 5401611
Stores Generated: 2493925
Stores sent to L1D: 2493930
Major fault: 0 Minor fault: 5849
Allocated PAGES: 5849

DRAM Statistics
 CHANNEL 0
 RQ ROW_BUFFER_HIT:         25  ROW_BUFFER_MISS:        550
 DBUS_CONGESTED:          0
 WQ ROW_BUFFER_HIT:          0  ROW_BUFFER_MISS:          0  FULL:          0

 AVG_CONGESTED_CYCLE: -
 All warmup complete: 2
Channel 0 Bank busy for read cycles: 0
Channel 0 Bank busy for write cycles: 0
Channel 0
Rank 0
0banks busy for read cycles: 46867660
0banks busy for write cycles: 0
1banks busy for read cycles: 81986
1banks busy for write cycles: 0
2banks busy for read cycles: 882
2banks busy for write cycles: 0
3banks busy for read cycles: 0
3banks busy for write cycles: 0
4banks busy for read cycles: 0
4banks busy for write cycles: 0
5banks busy for read cycles: 0
5banks busy for write cycles: 0
6banks busy for read cycles: 0
6banks busy for write cycles: 0
7banks busy for read cycles: 0
7banks busy for write cycles: 0
8banks busy for read cycles: 0
8banks busy for write cycles: 0

CPU 0 Branch Prediction Accuracy: 99.6577% MPKI: 0.60132 Average ROB Occupancy at Mispredict: 20.5426
Branch types
NOT_BRANCH: 20608124 82.4325%
BRANCH_DIRECT_JUMP: 212912 0.851648%
BRANCH_INDIRECT: 1177003 4.70801%
BRANCH_CONDITIONAL: 2238278 8.95311%
BRANCH_DIRECT_CALL: 302881 1.21152%
BRANCH_INDIRECT_CALL: 78801 0.315204%
BRANCH_RETURN: 381920 1.52768%
BRANCH_OTHER: 0 0%

DRAM PAGES: 1048576
Allocated PAGES: 5849
