
*** ChampSim Multicore Out-of-Order Simulator ***

Warmup Instructions: 25000000
Simulation Instructions: 25000000
Number of CPUs: 1
LLC sets: 2048
LLC ways: 16
Off-chip DRAM Size: 4096 MB Channels: 1 Width: 64-bit Data Rate: 6400 MT/s
CPU 0 runs ../../traces/spec2k17/srv_25.champsimtrace.xz
.xz
BTB has LRU replacement policy
ITLB has LRU replacement policy
DTLB has LRU replacement policy
STLB has LRU replacement policy
L1I has LRU replacement policy
L1D has LRU replacement policy
Initialize SRRIP state for L2C
Initialize DRRIP state for LLC
Heartbeat CPU 0 instructions: 10000002 cycles: 2808393 heartbeat IPC: 3.56076 cumulative IPC: 3.56076 (Simulation time: 0 hr 9 min 33 sec) 
Heartbeat CPU 0 instructions: 20000001 cycles: 5614462 heartbeat IPC: 3.5637 cumulative IPC: 3.56223 (Simulation time: 0 hr 18 min 59 sec) 

Warmup complete CPU 0 instructions: 25000001 cycles: 7014536 (Simulation time: 0 hr 23 min 55 sec) 

Heartbeat CPU 0 instructions: 30000002 cycles: 22483445 heartbeat IPC: 0.592804 cumulative IPC: 0.323229 (Simulation time: 0 hr 31 min 30 sec) 
*** Reached end of trace for Core: 0 Repeating trace: ../../traces/spec2k17/srv_25.champsimtrace.xz
Heartbeat CPU 0 instructions: 40000001 cycles: 53007990 heartbeat IPC: 0.327605 cumulative IPC: 0.326133 (Simulation time: 0 hr 46 min 0 sec) 
Heartbeat CPU 0 instructions: 50000001 cycles: 83900041 heartbeat IPC: 0.323708 cumulative IPC: 0.325159 (Simulation time: 0 hr 57 min 20 sec) 
Finished CPU 0 instructions: 25000000 cycles: 76885505 cumulative IPC: 0.325159 (Simulation time: 0 hr 57 min 20 sec) 

ChampSim completed all CPUs

Region of Interest Statistics

CPU 0 cumulative IPC: 0.325159 instructions: 25000000 cycles: 76885505
ITLB TOTAL     ACCESS:    4414220  HIT:    4130516  MISS:     283704  HIT %:     93.573  MISS %:    6.42705   MPKI: 11.3482
ITLB LOAD TRANSLATION ACCESS:    4414220  HIT:    4130516  MISS:     283704  HIT %:     93.573  MISS %:    6.42705   MPKI: 11.3482
ITLB PREFETCH  REQUESTED:          0  ISSUED:          0  USEFUL:          0  USELESS:          0
ITLB USEFUL LOAD PREFETCHES:          0 PREFETCH ISSUED TO LOWER LEVEL:          0  ACCURACY: -nan
ITLB TIMELY PREFETCHES:          0 LATE PREFETCHES: 0 DROPPED PREFETCHES: 0
ITLB PREFETCHES SAME FILL-ORIGIN LEVEL: 0 DIFFERENT FILL-ORIGIN LEVEL: 0
ITLB AVERAGE MISS LATENCY: 9.07745 cycles
ITLB RQ	ACCESS:    5211155	FORWARD:          0	MERGED:     728739	TO_CACHE:    4482416

DTLB TOTAL     ACCESS:    5785931  HIT:    5515555  MISS:     270376  HIT %:     95.327  MISS %:    4.67299   MPKI: 10.815
DTLB LOAD TRANSLATION ACCESS:    5785931  HIT:    5515555  MISS:     270376  HIT %:     95.327  MISS %:    4.67299   MPKI: 10.815
DTLB PREFETCH  REQUESTED:          0  ISSUED:          0  USEFUL:          0  USELESS:          0
DTLB USEFUL LOAD PREFETCHES:          0 PREFETCH ISSUED TO LOWER LEVEL:          0  ACCURACY: -nan
DTLB TIMELY PREFETCHES:          0 LATE PREFETCHES: 0 DROPPED PREFETCHES: 0
DTLB PREFETCHES SAME FILL-ORIGIN LEVEL: 0 DIFFERENT FILL-ORIGIN LEVEL: 0
DTLB AVERAGE MISS LATENCY: 9.96522 cycles
DTLB RQ	ACCESS:    7635133	FORWARD:          0	MERGED:    1841944	TO_CACHE:    5793189

STLB TOTAL     ACCESS:     554079  HIT:     547097  MISS:       6982  HIT %:    98.7399  MISS %:    1.26011   MPKI: 0.27928
STLB LOAD TRANSLATION ACCESS:     554079  HIT:     547097  MISS:       6982  HIT %:    98.7399  MISS %:    1.26011   MPKI: 0.27928
STLB PREFETCH  REQUESTED:          0  ISSUED:          0  USEFUL:          0  USELESS:          0
STLB USEFUL LOAD PREFETCHES:          0 PREFETCH ISSUED TO LOWER LEVEL:          0  ACCURACY: -nan
STLB TIMELY PREFETCHES:          0 LATE PREFETCHES: 0 DROPPED PREFETCHES: 0
STLB PREFETCHES SAME FILL-ORIGIN LEVEL: 0 DIFFERENT FILL-ORIGIN LEVEL: 0
STLB AVERAGE MISS LATENCY: 40.049 cycles
STLB RQ	ACCESS:     554079	FORWARD:          0	MERGED:          0	TO_CACHE:     554079

STLB Hit, L1D data hit: 0
STLB Hit, L2C data hit: 0
STLB Hit, LLC data hit: 0
STLB Hit, LLC data miss: 0
STLB STLB hints to L2: 0
L1D TOTAL     ACCESS:    7635142  HIT:    7635142  MISS:          0  HIT %:        100  MISS %:          0   MPKI: 0
L1D LOAD      ACCESS:    4273535  HIT:    4273535  MISS:          0  HIT %:        100  MISS %:          0   MPKI: 0
L1D RFO       ACCESS:    3361607  HIT:    3361607  MISS:          0  HIT %:        100  MISS %:          0   MPKI: 0
L1D PREFETCH  REQUESTED:          0  ISSUED:          0  USEFUL:          0  USELESS:          0
L1D USEFUL LOAD PREFETCHES:          0 PREFETCH ISSUED TO LOWER LEVEL:          0  ACCURACY: -nan
L1D TIMELY PREFETCHES:          0 LATE PREFETCHES: 0 DROPPED PREFETCHES: 0
L1D PREFETCHES SAME FILL-ORIGIN LEVEL: 0 DIFFERENT FILL-ORIGIN LEVEL: 0
L1D AVERAGE MISS LATENCY: -nan cycles
L1D RQ	ACCESS:    5830073	FORWARD:          0	MERGED:    1515155	TO_CACHE:    4273533
L1D WQ	ACCESS:    3378026	FORWARD:      41385	MERGED:      16426	TO_CACHE:    3361600

L1D UNIQUE REGIONS ACCESSED: 0
L1D REGIONS CONFLICTS: 0
L1D Cross Page Prefetch Requests: 0
L1D Same Page Prefetch Requests: 0
L1D ROI Sum of L1D PQ occupancy: 0
L1D PREFETCHES PUSHED FROM L2C: 0
L1I TOTAL     ACCESS:    5004404  HIT:    3564073  MISS:    1440331  HIT %:    71.2187  MISS %:    28.7813   MPKI: 57.6132
L1I LOAD      ACCESS:    5004404  HIT:    3564073  MISS:    1440331  HIT %:    71.2187  MISS %:    28.7813   MPKI: 57.6132
L1I PREFETCH  REQUESTED:          0  ISSUED:          0  USEFUL:          0  USELESS:          0
L1I USEFUL LOAD PREFETCHES:          0 PREFETCH ISSUED TO LOWER LEVEL:          0  ACCURACY: -nan
L1I TIMELY PREFETCHES:          0 LATE PREFETCHES: 0 DROPPED PREFETCHES: 0
L1I PREFETCHES SAME FILL-ORIGIN LEVEL: 0 DIFFERENT FILL-ORIGIN LEVEL: 0
L1I AVERAGE MISS LATENCY: 14.1438 cycles
L1I RQ	ACCESS:    7329563	FORWARD:          0	MERGED:    2118408	TO_CACHE:    5211155

BTB TOTAL     ACCESS:    3819546  HIT:    2225047  MISS:    1594499  HIT %:    58.2542  MISS %:    41.7458   MPKI: 63.78
BTB BRANCH_DIRECT_JUMP	ACCESS:     259020  HIT:     156560  MISS:     102460
BTB BRANCH_INDIRECT	ACCESS:    1536590  HIT:     920484  MISS:     616106
BTB BRANCH_CONDITIONAL	ACCESS:     865249  HIT:     703312  MISS:     161937
BTB BRANCH_DIRECT_CALL	ACCESS:     488398  HIT:     229999  MISS:     258399
BTB BRANCH_INDIRECT_CALL	ACCESS:      90945  HIT:      44002  MISS:      46943
BTB BRANCH_RETURN	ACCESS:     579344  HIT:     170690  MISS:     408654
BTB BRANCH_OTHER ACCESS:          0  HIT:          0  MISS:          0

L2C TOTAL     ACCESS:    1450941  HIT:    1446715  MISS:       4226  HIT %:    99.7087  MISS %:   0.291259   MPKI: 0.16904
L2C LOAD      ACCESS:    1440330  HIT:    1437078  MISS:       3252  HIT %:    99.7742  MISS %:   0.225782   MPKI: 0.13008
L2C DATA LOAD MPKI: 0
L2C INSTRUCTION LOAD MPKI: 0.13008
L2C LOAD TRANSLATION ACCESS:      10611  HIT:       9637  MISS:        974  HIT %:    90.8208  MISS %:    9.17915   MPKI: 0.03896
L2C PREFETCH  REQUESTED:          0  ISSUED:          0  USEFUL:          0  USELESS:          0
L2C USEFUL LOAD PREFETCHES:          0 PREFETCH ISSUED TO LOWER LEVEL:          0  ACCURACY: -nan
L2C TIMELY PREFETCHES:          0 LATE PREFETCHES: 0 DROPPED PREFETCHES: 0
L2C PREFETCHES SAME FILL-ORIGIN LEVEL: 0 DIFFERENT FILL-ORIGIN LEVEL: 0
L2C AVERAGE MISS LATENCY: 39.0535 cycles
L2C RQ	ACCESS:    1450941	FORWARD:          0	MERGED:          0	TO_CACHE:    1450941

L2C Instructions Evicting Data 0
L2C Translations Evicting Data 0
L2C Data Evicting Data 0
L2C Instructions Evicting Instructions 2937
L2C Translations Evicting Instructions 316
L2C Data Evicting Instructions 0
L2C Instructions Evicting Translations 315
L2C Translations Evicting Translations 521
L2C Data Evicting Translations 0
L2C Dense regions hint from L2: 0
PSCL5 TOTAL     ACCESS:       6982  HIT:       6982  MISS:          0  HIT %:        100  MISS %:          0   MPKI: 0
PSCL5 LOAD TRANSLATION ACCESS:       6982  HIT:       6982  MISS:          0  HIT %:        100  MISS %:          0   MPKI: 0
PSCL5 PREFETCH  REQUESTED:          0  ISSUED:          0  USEFUL:          0  USELESS:          0
PSCL5 USEFUL LOAD PREFETCHES:          0 PREFETCH ISSUED TO LOWER LEVEL:          0  ACCURACY: -nan
PSCL5 TIMELY PREFETCHES:          0 LATE PREFETCHES: 0 DROPPED PREFETCHES: 0
PSCL5 PREFETCHES SAME FILL-ORIGIN LEVEL: 0 DIFFERENT FILL-ORIGIN LEVEL: 0

PSCL4 TOTAL     ACCESS:       6822  HIT:       6742  MISS:         80  HIT %:    98.8273  MISS %:    1.17268   MPKI: 0.0032
PSCL4 LOAD TRANSLATION ACCESS:       6822  HIT:       6742  MISS:         80  HIT %:    98.8273  MISS %:    1.17268   MPKI: 0.0032
PSCL4 PREFETCH  REQUESTED:          0  ISSUED:          0  USEFUL:          0  USELESS:          0
PSCL4 USEFUL LOAD PREFETCHES:          0 PREFETCH ISSUED TO LOWER LEVEL:          0  ACCURACY: -nan
PSCL4 TIMELY PREFETCHES:          0 LATE PREFETCHES: 0 DROPPED PREFETCHES: 0
PSCL4 PREFETCHES SAME FILL-ORIGIN LEVEL: 0 DIFFERENT FILL-ORIGIN LEVEL: 0

PSCL3 TOTAL     ACCESS:       6959  HIT:       6879  MISS:         80  HIT %:    98.8504  MISS %:    1.14959   MPKI: 0.0032
PSCL3 LOAD TRANSLATION ACCESS:       6959  HIT:       6879  MISS:         80  HIT %:    98.8504  MISS %:    1.14959   MPKI: 0.0032
PSCL3 PREFETCH  REQUESTED:          0  ISSUED:          0  USEFUL:          0  USELESS:          0
PSCL3 USEFUL LOAD PREFETCHES:          0 PREFETCH ISSUED TO LOWER LEVEL:          0  ACCURACY: -nan
PSCL3 TIMELY PREFETCHES:          0 LATE PREFETCHES: 0 DROPPED PREFETCHES: 0
PSCL3 PREFETCHES SAME FILL-ORIGIN LEVEL: 0 DIFFERENT FILL-ORIGIN LEVEL: 0

PSCL2 TOTAL     ACCESS:       6982  HIT:       3513  MISS:       3469  HIT %:    50.3151  MISS %:    49.6849   MPKI: 0.13876
PSCL2 LOAD TRANSLATION ACCESS:       6982  HIT:       3513  MISS:       3469  HIT %:    50.3151  MISS %:    49.6849   MPKI: 0.13876
PSCL2 PREFETCH  REQUESTED:          0  ISSUED:          0  USEFUL:          0  USELESS:          0
PSCL2 USEFUL LOAD PREFETCHES:          0 PREFETCH ISSUED TO LOWER LEVEL:          0  ACCURACY: -nan
PSCL2 TIMELY PREFETCHES:          0 LATE PREFETCHES: 0 DROPPED PREFETCHES: 0
PSCL2 PREFETCHES SAME FILL-ORIGIN LEVEL: 0 DIFFERENT FILL-ORIGIN LEVEL: 0

LLC TOTAL     ACCESS:       4226  HIT:       3988  MISS:        238  HIT %:    94.3682  MISS %:     5.6318   MPKI: 0.00952
LLC LOAD      ACCESS:       3252  HIT:       3244  MISS:          8  HIT %:     99.754  MISS %:   0.246002   MPKI: 0.00032
LLC LOAD TRANSLATION ACCESS:        974  HIT:        744  MISS:        230  HIT %:     76.386  MISS %:     23.614   MPKI: 0.0092
LLC PREFETCH  REQUESTED:          0  ISSUED:          0  USEFUL:          0  USELESS:          0
LLC USEFUL LOAD PREFETCHES:          0 PREFETCH ISSUED TO LOWER LEVEL:          0  ACCURACY: -nan
LLC TIMELY PREFETCHES:          0 LATE PREFETCHES: 0 DROPPED PREFETCHES: 0
LLC PREFETCHES SAME FILL-ORIGIN LEVEL: 0 DIFFERENT FILL-ORIGIN LEVEL: 0
LLC AVERAGE MISS LATENCY: 160.756 cycles
LLC RQ	ACCESS:       4226	FORWARD:          0	MERGED:          0	TO_CACHE:       4226

LLC Dense regions hint to LLC: 0

RAW hits: 171136
Loads Generated: 6001209
Loads sent to L1D: 5830073
Stores Generated: 3378014
Stores sent to L1D: 3378026
Major fault: 0 Minor fault: 4375
Allocated PAGES: 4375

DRAM Statistics
 CHANNEL 0
 RQ ROW_BUFFER_HIT:         22  ROW_BUFFER_MISS:        216
 DBUS_CONGESTED:          0
 WQ ROW_BUFFER_HIT:          0  ROW_BUFFER_MISS:          0  FULL:          0

 AVG_CONGESTED_CYCLE: -
 All warmup complete: 2
Channel 0 Bank busy for read cycles: 0
Channel 0 Bank busy for write cycles: 0
Channel 0
Rank 0
0banks busy for read cycles: 76852006
0banks busy for write cycles: 0
1banks busy for read cycles: 33500
1banks busy for write cycles: 0
2banks busy for read cycles: 0
2banks busy for write cycles: 0
3banks busy for read cycles: 0
3banks busy for write cycles: 0
4banks busy for read cycles: 0
4banks busy for write cycles: 0
5banks busy for read cycles: 0
5banks busy for write cycles: 0
6banks busy for read cycles: 0
6banks busy for write cycles: 0
7banks busy for read cycles: 0
7banks busy for write cycles: 0
8banks busy for read cycles: 0
8banks busy for write cycles: 0

CPU 0 Branch Prediction Accuracy: 99.7398% MPKI: 0.46724 Average ROB Occupancy at Mispredict: 23.8969
Branch types
NOT_BRANCH: 20511010 82.044%
BRANCH_DIRECT_JUMP: 259020 1.03608%
BRANCH_INDIRECT: 1536590 6.14636%
BRANCH_CONDITIONAL: 1534621 6.13848%
BRANCH_DIRECT_CALL: 488398 1.95359%
BRANCH_INDIRECT_CALL: 90945 0.36378%
BRANCH_RETURN: 579344 2.31738%
BRANCH_OTHER: 0 0%

DRAM PAGES: 1048576
Allocated PAGES: 4375
