
*** ChampSim Multicore Out-of-Order Simulator ***

Warmup Instructions: 50000000
Simulation Instructions: 200000000
Number of CPUs: 1
LLC sets: 2048
LLC ways: 16
Off-chip DRAM Size: 4096 MB Channels: 1 Width: 64-bit Data Rate: 6400 MT/s
CPU 0 runs traces/spec2k17/602.gcc_s-1850B.champsimtrace.xz
.xz
BTB has LRU replacement policy
ITLB has LRU replacement policy
DTLB has LRU replacement policy
STLB has LRU replacement policy
L1I has LRU replacement policy
CPU 0 L2C next line prefetcher
L1D has LRU replacement policy
Initialize SRRIP state for L2C
Initialize DRRIP state for LLC
Heartbeat CPU 0 instructions: 10000002 cycles: 3270350 heartbeat IPC: 3.05778 cumulative IPC: 3.05778 (Simulation time: 0 hr 0 min 49 sec) 
Heartbeat CPU 0 instructions: 20000000 cycles: 6540676 heartbeat IPC: 3.0578 cumulative IPC: 3.05779 (Simulation time: 0 hr 1 min 39 sec) 
Heartbeat CPU 0 instructions: 30000000 cycles: 9809738 heartbeat IPC: 3.05898 cumulative IPC: 3.05819 (Simulation time: 0 hr 2 min 28 sec) 
Heartbeat CPU 0 instructions: 40000000 cycles: 13079457 heartbeat IPC: 3.05837 cumulative IPC: 3.05823 (Simulation time: 0 hr 3 min 12 sec) 
Heartbeat CPU 0 instructions: 50000000 cycles: 16349579 heartbeat IPC: 3.05799 cumulative IPC: 3.05818 (Simulation time: 0 hr 3 min 58 sec) 

Warmup complete CPU 0 instructions: 50000004 cycles: 16349580 (Simulation time: 0 hr 3 min 58 sec) 

Heartbeat CPU 0 instructions: 60000003 cycles: 48041690 heartbeat IPC: 0.315536 cumulative IPC: 0.315536 (Simulation time: 0 hr 5 min 41 sec) 
Heartbeat CPU 0 instructions: 70000002 cycles: 79727143 heartbeat IPC: 0.315602 cumulative IPC: 0.315569 (Simulation time: 0 hr 7 min 29 sec) 
Heartbeat CPU 0 instructions: 80000003 cycles: 111344896 heartbeat IPC: 0.316278 cumulative IPC: 0.315805 (Simulation time: 0 hr 9 min 15 sec) 
Heartbeat CPU 0 instructions: 90000001 cycles: 143021584 heartbeat IPC: 0.31569 cumulative IPC: 0.315776 (Simulation time: 0 hr 11 min 2 sec) 
Heartbeat CPU 0 instructions: 100000000 cycles: 174662206 heartbeat IPC: 0.316049 cumulative IPC: 0.315831 (Simulation time: 0 hr 12 min 43 sec) 
Heartbeat CPU 0 instructions: 110000000 cycles: 206294732 heartbeat IPC: 0.31613 cumulative IPC: 0.315881 (Simulation time: 0 hr 14 min 25 sec) 
Heartbeat CPU 0 instructions: 120000003 cycles: 238191709 heartbeat IPC: 0.313509 cumulative IPC: 0.31554 (Simulation time: 0 hr 16 min 2 sec) 
Heartbeat CPU 0 instructions: 130000003 cycles: 270031379 heartbeat IPC: 0.314074 cumulative IPC: 0.315356 (Simulation time: 0 hr 17 min 44 sec) 
Heartbeat CPU 0 instructions: 140000000 cycles: 301407836 heartbeat IPC: 0.31871 cumulative IPC: 0.315725 (Simulation time: 0 hr 19 min 26 sec) 
Heartbeat CPU 0 instructions: 150000000 cycles: 333317086 heartbeat IPC: 0.313389 cumulative IPC: 0.31549 (Simulation time: 0 hr 21 min 10 sec) 
Heartbeat CPU 0 instructions: 160000000 cycles: 365023312 heartbeat IPC: 0.315395 cumulative IPC: 0.315481 (Simulation time: 0 hr 22 min 59 sec) 
Heartbeat CPU 0 instructions: 170000003 cycles: 396556148 heartbeat IPC: 0.31713 cumulative IPC: 0.315618 (Simulation time: 0 hr 24 min 50 sec) 
Heartbeat CPU 0 instructions: 180000000 cycles: 428219885 heartbeat IPC: 0.315819 cumulative IPC: 0.315633 (Simulation time: 0 hr 26 min 36 sec) 
Heartbeat CPU 0 instructions: 190000003 cycles: 460205194 heartbeat IPC: 0.312644 cumulative IPC: 0.315418 (Simulation time: 0 hr 28 min 18 sec) 
Heartbeat CPU 0 instructions: 200000000 cycles: 491777375 heartbeat IPC: 0.316734 cumulative IPC: 0.315505 (Simulation time: 0 hr 30 min 2 sec) 
Heartbeat CPU 0 instructions: 210000002 cycles: 523360359 heartbeat IPC: 0.316626 cumulative IPC: 0.315575 (Simulation time: 0 hr 31 min 47 sec) 
Heartbeat CPU 0 instructions: 220000000 cycles: 554807636 heartbeat IPC: 0.317992 cumulative IPC: 0.315716 (Simulation time: 0 hr 33 min 29 sec) 
Heartbeat CPU 0 instructions: 230000003 cycles: 586660496 heartbeat IPC: 0.313944 cumulative IPC: 0.315617 (Simulation time: 0 hr 35 min 16 sec) 
Heartbeat CPU 0 instructions: 240000000 cycles: 618173020 heartbeat IPC: 0.317334 cumulative IPC: 0.315707 (Simulation time: 0 hr 36 min 58 sec) 
Heartbeat CPU 0 instructions: 250000000 cycles: 649948406 heartbeat IPC: 0.314709 cumulative IPC: 0.315657 (Simulation time: 0 hr 38 min 42 sec) 
Finished CPU 0 instructions: 200000000 cycles: 633598827 cumulative IPC: 0.315657 (Simulation time: 0 hr 38 min 42 sec) 

ChampSim completed all CPUs

Region of Interest Statistics

CPU 0 cumulative IPC: 0.315657 instructions: 200000000 cycles: 633598827
ITLB TOTAL     ACCESS:   46849953  HIT:   46849953  MISS:          0  HIT %:        100  MISS %:          0   MPKI: 0
ITLB LOAD TRANSLATION ACCESS:   46849953  HIT:   46849953  MISS:          0  HIT %:        100  MISS %:          0   MPKI: 0
ITLB PREFETCH  REQUESTED:          0  ISSUED:          0  USEFUL:          0  USELESS:          0
ITLB USEFUL LOAD PREFETCHES:          0 PREFETCH ISSUED TO LOWER LEVEL:          0  ACCURACY: -nan
ITLB TIMELY PREFETCHES:          0 LATE PREFETCHES: 0 DROPPED PREFETCHES: 0
ITLB PREFETCHES SAME FILL-ORIGIN LEVEL: 0 DIFFERENT FILL-ORIGIN LEVEL: 0
ITLB AVERAGE MISS LATENCY: -nan cycles
ITLB RQ	ACCESS:   50588710	FORWARD:          0	MERGED:    3738757	TO_CACHE:   46849953

DTLB TOTAL     ACCESS:   54615608  HIT:   54549467  MISS:      66141  HIT %:    99.8789  MISS %:   0.121103   MPKI: 0.330705
DTLB LOAD TRANSLATION ACCESS:   54615608  HIT:   54549467  MISS:      66141  HIT %:    99.8789  MISS %:   0.121103   MPKI: 0.330705
DTLB PREFETCH  REQUESTED:          0  ISSUED:          0  USEFUL:          0  USELESS:          0
DTLB USEFUL LOAD PREFETCHES:          0 PREFETCH ISSUED TO LOWER LEVEL:          0  ACCURACY: -nan
DTLB TIMELY PREFETCHES:          0 LATE PREFETCHES: 0 DROPPED PREFETCHES: 0
DTLB PREFETCHES SAME FILL-ORIGIN LEVEL: 0 DIFFERENT FILL-ORIGIN LEVEL: 0
DTLB AVERAGE MISS LATENCY: 133.84 cycles
DTLB RQ	ACCESS:   55996391	FORWARD:          0	MERGED:    1378004	TO_CACHE:   54618387

STLB TOTAL     ACCESS:    3288872  HIT:    3228001  MISS:      60871  HIT %:    98.1492  MISS %:    1.85082   MPKI: 0.304355
STLB LOAD TRANSLATION ACCESS:      66141  HIT:       5305  MISS:      60836  HIT %:    8.02074  MISS %:    91.9793   MPKI: 0.30418
STLB TRANSLATION FROM L1D PREFETCHER ACCESS:    3222731  HIT:    3222696  MISS:         35  HIT %:    99.9989  MISS %: 0.00108604   MPKI: 0.000175
STLB PREFETCH  REQUESTED:          0  ISSUED:          0  USEFUL:         31  USELESS:          4
STLB USEFUL LOAD PREFETCHES:         31 PREFETCH ISSUED TO LOWER LEVEL:          0  ACCURACY: inf
STLB TIMELY PREFETCHES:         31 LATE PREFETCHES: 620 DROPPED PREFETCHES: 219667
STLB PREFETCHES SAME FILL-ORIGIN LEVEL: 0 DIFFERENT FILL-ORIGIN LEVEL: 0
STLB AVERAGE MISS LATENCY: 9447.39 cycles
STLB RQ	ACCESS:    3559717	FORWARD:          0	MERGED:      45789	TO_CACHE:    3513928

STLB Hit, L1D data hit: 0
STLB Hit, L2C data hit: 0
STLB Hit, LLC data hit: 0
STLB Hit, LLC data miss: 0
STLB STLB hints to L2: 0
L1D TOTAL     ACCESS:   58458035  HIT:   53102480  MISS:    5355555  HIT %:    90.8386  MISS %:    9.16137   MPKI: 26.7778
L1D LOAD      ACCESS:   38160737  HIT:   34930134  MISS:    3230603  HIT %:    91.5342  MISS %:    8.46578   MPKI: 16.153
L1D RFO       ACCESS:   17263548  HIT:   17262177  MISS:       1371  HIT %:    99.9921  MISS %: 0.00794159   MPKI: 0.006855
L1D PREFETCH  ACCESS:    3033750  HIT:     910169  MISS:    2123581  HIT %:    30.0015  MISS %:    69.9985   MPKI: 10.6179
AGUS PREFETCH L1 MISS: 0
L1D PREFETCH  REQUESTED:    7294993  ISSUED:    7294993  USEFUL:    1746409  USELESS:     377234
L1D USEFUL LOAD PREFETCHES:    1746409 PREFETCH ISSUED TO LOWER LEVEL:    2142183  ACCURACY: 81.5247
L1D TIMELY PREFETCHES:    1746409 LATE PREFETCHES: 18519 DROPPED PREFETCHES: 226667
L1D PREFETCHES SAME FILL-ORIGIN LEVEL: 2142183 DIFFERENT FILL-ORIGIN LEVEL: 0
L1D AVERAGE MISS LATENCY: 1.16366e+06 cycles
L1D RQ	ACCESS:   55583031	FORWARD:          0	MERGED:   16849567	TO_CACHE:   38732842
L1D WQ	ACCESS:   19411013	FORWARD:        622	MERGED:    2147464	TO_CACHE:   17263549
L1D PQ	ACCESS:    3801417	FORWARD:          0	MERGED:     307841	TO_CACHE:    3493576

L1D UNIQUE REGIONS ACCESSED: 0
L1D REGIONS CONFLICTS: 0
L1D Cross Page Prefetch Requests: 665538
L1D Same Page Prefetch Requests: 4264854
L1D ROI Sum of L1D PQ occupancy: 50872958
L1D PREFETCHES PUSHED FROM L2C: 0
L1I TOTAL     ACCESS:   50588709  HIT:   50588709  MISS:          0  HIT %:        100  MISS %:          0   MPKI: 0
L1I LOAD      ACCESS:   50588709  HIT:   50588709  MISS:          0  HIT %:        100  MISS %:          0   MPKI: 0
L1I PREFETCH  REQUESTED:          0  ISSUED:          0  USEFUL:          0  USELESS:          0
L1I USEFUL LOAD PREFETCHES:          0 PREFETCH ISSUED TO LOWER LEVEL:          0  ACCURACY: -nan
L1I TIMELY PREFETCHES:          0 LATE PREFETCHES: 0 DROPPED PREFETCHES: 0
L1I PREFETCHES SAME FILL-ORIGIN LEVEL: 0 DIFFERENT FILL-ORIGIN LEVEL: 0
L1I AVERAGE MISS LATENCY: -nan cycles
L1I RQ	ACCESS:   79239118	FORWARD:          0	MERGED:   28650408	TO_CACHE:   50588710

BTB TOTAL     ACCESS:   32765954  HIT:   32765925  MISS:         29  HIT %:    99.9999  MISS %: 8.85065e-05   MPKI: 0.000145
BTB BRANCH_DIRECT_JUMP	ACCESS:    4318196  HIT:    4318187  MISS:          9
BTB BRANCH_INDIRECT	ACCESS:          0  HIT:          0  MISS:          0
BTB BRANCH_CONDITIONAL	ACCESS:   24127035  HIT:   24127021  MISS:         14
BTB BRANCH_DIRECT_CALL	ACCESS:    2160361  HIT:    2160358  MISS:          3
BTB BRANCH_INDIRECT_CALL	ACCESS:          0  HIT:          0  MISS:          0
BTB BRANCH_RETURN	ACCESS:    2160362  HIT:    2160359  MISS:          3
BTB BRANCH_OTHER ACCESS:          0  HIT:          0  MISS:          0

L2C TOTAL     ACCESS:    5663473  HIT:    2057840  MISS:    3605633  HIT %:    36.3353  MISS %:    63.6647   MPKI: 18.0282
L2C LOAD      ACCESS:    3212084  HIT:    1330241  MISS:    1881843  HIT %:    41.4136  MISS %:    58.5864   MPKI: 9.40921
L2C DATA LOAD MPKI: 9.40921
L2C INSTRUCTION LOAD MPKI: 0
L2C RFO       ACCESS:       1288  HIT:        498  MISS:        790  HIT %:    38.6646  MISS %:    61.3354   MPKI: 0.00395
L2C PREFETCH  ACCESS:    2142183  HIT:     430273  MISS:    1711910  HIT %:    20.0857  MISS %:    79.9143   MPKI: 8.55955
AGUS PREFETCH L1 MISS: 0
L2C DATA PREFETCH MPKI: 8.55955
L2C INSTRUCTION PREFETCH MPKI: 0
L2C WRITEBACK ACCESS:      12522  HIT:      12522  MISS:          0  HIT %:        100  MISS %:          0   MPKI: 0
L2C LOAD TRANSLATION ACCESS:      61078  HIT:      53309  MISS:       7769  HIT %:    87.2802  MISS %:    12.7198   MPKI: 0.038845
L2C TRANSLATION FROM L1D PREFETCHER ACCESS:     234318  HIT:     230997  MISS:       3321  HIT %:    98.5827  MISS %:     1.4173   MPKI: 0.016605
L2C PREFETCH  REQUESTED:          0  ISSUED:          0  USEFUL:      20814  USELESS:    1694448
L2C USEFUL LOAD PREFETCHES:      20814 PREFETCH ISSUED TO LOWER LEVEL:    1711910  ACCURACY: 1.21583
L2C TIMELY PREFETCHES:      20814 LATE PREFETCHES: 0 DROPPED PREFETCHES: 0
L2C PREFETCHES SAME FILL-ORIGIN LEVEL: 0 DIFFERENT FILL-ORIGIN LEVEL: 0
L2C AVERAGE MISS LATENCY: 112.088 cycles
L2C RQ	ACCESS:    3508768	FORWARD:          0	MERGED:          0	TO_CACHE:    3508768
L2C WQ	ACCESS:      12522	FORWARD:          0	MERGED:          0	TO_CACHE:      12522
L2C PQ	ACCESS:    2142183	FORWARD:          0	MERGED:          0	TO_CACHE:    2142183

L2C Instructions Evicting Data 0
L2C Translations Evicting Data 11042
L2C Data Evicting Data 3583491
L2C Instructions Evicting Instructions 0
L2C Translations Evicting Instructions 0
L2C Data Evicting Instructions 0
L2C Instructions Evicting Translations 0
L2C Translations Evicting Translations 48
L2C Data Evicting Translations 11052
L2C Dense regions hint from L2: 0
PSCL5 TOTAL     ACCESS:     281158  HIT:     281158  MISS:          0  HIT %:        100  MISS %:          0   MPKI: 0
PSCL5 LOAD TRANSLATION ACCESS:      60836  HIT:      60836  MISS:          0  HIT %:        100  MISS %:          0   MPKI: 0
PSCL5 TRANSLATION FROM L1D PREFETCHER ACCESS:     220322  HIT:     220322  MISS:          0  HIT %:        100  MISS %:          0   MPKI: 0
PSCL5 PREFETCH  REQUESTED:          0  ISSUED:          0  USEFUL:          0  USELESS:          0
PSCL5 USEFUL LOAD PREFETCHES:          0 PREFETCH ISSUED TO LOWER LEVEL:          0  ACCURACY: -nan
PSCL5 TIMELY PREFETCHES:          0 LATE PREFETCHES: 0 DROPPED PREFETCHES: 0
PSCL5 PREFETCHES SAME FILL-ORIGIN LEVEL: 0 DIFFERENT FILL-ORIGIN LEVEL: 0

PSCL4 TOTAL     ACCESS:     281158  HIT:     281158  MISS:          0  HIT %:        100  MISS %:          0   MPKI: 0
PSCL4 LOAD TRANSLATION ACCESS:      60836  HIT:      60836  MISS:          0  HIT %:        100  MISS %:          0   MPKI: 0
PSCL4 TRANSLATION FROM L1D PREFETCHER ACCESS:     220322  HIT:     220322  MISS:          0  HIT %:        100  MISS %:          0   MPKI: 0
PSCL4 PREFETCH  REQUESTED:          0  ISSUED:          0  USEFUL:          0  USELESS:          0
PSCL4 USEFUL LOAD PREFETCHES:          0 PREFETCH ISSUED TO LOWER LEVEL:          0  ACCURACY: -nan
PSCL4 TIMELY PREFETCHES:          0 LATE PREFETCHES: 0 DROPPED PREFETCHES: 0
PSCL4 PREFETCHES SAME FILL-ORIGIN LEVEL: 0 DIFFERENT FILL-ORIGIN LEVEL: 0

PSCL3 TOTAL     ACCESS:     281158  HIT:     281157  MISS:          1  HIT %:    99.9996  MISS %: 0.000355672   MPKI: 5e-06
PSCL3 LOAD TRANSLATION ACCESS:      60836  HIT:      60835  MISS:          1  HIT %:    99.9984  MISS %: 0.00164376   MPKI: 5e-06
PSCL3 TRANSLATION FROM L1D PREFETCHER ACCESS:     220322  HIT:     220322  MISS:          0  HIT %:        100  MISS %:          0   MPKI: 0
PSCL3 PREFETCH  REQUESTED:          0  ISSUED:          0  USEFUL:          0  USELESS:          0
PSCL3 USEFUL LOAD PREFETCHES:          0 PREFETCH ISSUED TO LOWER LEVEL:          0  ACCURACY: -nan
PSCL3 TIMELY PREFETCHES:          0 LATE PREFETCHES: 0 DROPPED PREFETCHES: 0
PSCL3 PREFETCHES SAME FILL-ORIGIN LEVEL: 0 DIFFERENT FILL-ORIGIN LEVEL: 0

PSCL2 TOTAL     ACCESS:     266834  HIT:     266185  MISS:        649  HIT %:    99.7568  MISS %:   0.243222   MPKI: 0.003245
PSCL2 LOAD TRANSLATION ACCESS:      60838  HIT:      60189  MISS:        649  HIT %:    98.9332  MISS %:    1.06677   MPKI: 0.003245
PSCL2 TRANSLATION FROM L1D PREFETCHER ACCESS:     205996  HIT:     205996  MISS:          0  HIT %:        100  MISS %:          0   MPKI: 0
PSCL2 PREFETCH  REQUESTED:          0  ISSUED:          0  USEFUL:          0  USELESS:          0
PSCL2 USEFUL LOAD PREFETCHES:          0 PREFETCH ISSUED TO LOWER LEVEL:          0  ACCURACY: -nan
PSCL2 TIMELY PREFETCHES:          0 LATE PREFETCHES: 0 DROPPED PREFETCHES: 0
PSCL2 PREFETCHES SAME FILL-ORIGIN LEVEL: 0 DIFFERENT FILL-ORIGIN LEVEL: 0

LLC TOTAL     ACCESS:    3610558  HIT:      11224  MISS:    3599334  HIT %:   0.310866  MISS %:    99.6891   MPKI: 17.9967
LLC LOAD      ACCESS:    1881843  HIT:       1023  MISS:    1880820  HIT %:  0.0543616  MISS %:    99.9456   MPKI: 9.4041
LLC RFO       ACCESS:        790  HIT:         14  MISS:        776  HIT %:    1.77215  MISS %:    98.2278   MPKI: 0.00388
LLC PREFETCH  ACCESS:    1711910  HIT:       4882  MISS:    1707028  HIT %:   0.285179  MISS %:    99.7148   MPKI: 8.53514
AGUS PREFETCH L1 MISS: 0
LLC WRITEBACK ACCESS:       4925  HIT:       4700  MISS:        225  HIT %:    95.4315  MISS %:    4.56853   MPKI: 0.001125
LLC LOAD TRANSLATION ACCESS:       7769  HIT:        369  MISS:       7400  HIT %:    4.74965  MISS %:    95.2504   MPKI: 0.037
LLC TRANSLATION FROM L1D PREFETCHER ACCESS:       3321  HIT:        236  MISS:       3085  HIT %:    7.10629  MISS %:    92.8937   MPKI: 0.015425
LLC PREFETCH  REQUESTED:          0  ISSUED:          0  USEFUL:        395  USELESS:    1709236
LLC USEFUL LOAD PREFETCHES:        395 PREFETCH ISSUED TO LOWER LEVEL:    1707028  ACCURACY: 0.0231396
LLC TIMELY PREFETCHES:        395 LATE PREFETCHES: 0 DROPPED PREFETCHES: 0
LLC PREFETCHES SAME FILL-ORIGIN LEVEL: 0 DIFFERENT FILL-ORIGIN LEVEL: 0
LLC AVERAGE MISS LATENCY: 82.2148 cycles
LLC RQ	ACCESS:    1893723	FORWARD:          0	MERGED:          0	TO_CACHE:    1893723
LLC WQ	ACCESS:       4925	FORWARD:          0	MERGED:          0	TO_CACHE:       4925
LLC PQ	ACCESS:    1711910	FORWARD:          0	MERGED:          0	TO_CACHE:    1711910

LLC Dense regions hint to LLC: 0

RAW hits: 13071
Loads Generated: 55596102
Loads sent to L1D: 55583031
Stores Generated: 19411013
Stores sent to L1D: 19411013
Major fault: 0 Minor fault: 76297
Allocated PAGES: 76297
CPU 0 L1d next line prefetcher final stats

-63,4374
-62,4712
-61,4622
-60,4626
-59,4470
-58,4673
-57,4668
-56,4665
-55,4518
-54,4694
-53,4625
-52,4486
-51,4528
-50,4634
-49,4663
-48,4608
-47,4699
-46,4799
-45,4834
-44,4904
-43,5003
-42,5157
-41,5168
-40,5086
-39,5178
-38,5188
-37,5169
-36,5295
-35,5436
-34,5538
-33,5485
-32,5646
-31,5420
-30,5454
-29,5545
-28,5358
-27,5553
-26,5491
-25,5676
-24,5693
-23,5799
-22,5767
-21,5730
-20,5403
-19,5558
-18,5619
-17,5633
-16,5616
-15,5926
-14,6009
-13,6199
-12,6294
-11,6424
-10,6259
-9,6410
-8,6564
-7,6672
-6,6713
-5,6911
-4,7167
-3,7000
-2,7327
-1,7862
0,11606
1,20966
2,21096
3,16824
4,21793
5,16060
6,17354
7,16157
8,21177
9,15332
10,15775
11,14418
12,18462
13,14568
14,15599
15,15817
16,20545
17,15938
18,14903
19,13795
20,16232
21,13385
22,13600
23,14676
24,18959
25,14952
26,13667
27,13803
28,16327
29,14466
30,14487
31,16104
32,20024
33,16247
34,14415
35,14524
36,16085
37,13953
38,13144
39,14754
40,18045
41,14923
42,13127
43,13204
44,15284
45,13532
46,13380
47,15440
48,18853
49,15576
50,13773
51,13900
52,15928
53,13674
54,13250
55,14425
56,17647
57,14974
58,14065
59,14651
60,17173
61,15611
62,16387
63,18535

DRAM Statistics
 CHANNEL 0
 RQ ROW_BUFFER_HIT:    3365496  ROW_BUFFER_MISS:     233613
 DBUS_CONGESTED:          3
 WQ ROW_BUFFER_HIT:        556  ROW_BUFFER_MISS:       4365  FULL:          0

 AVG_CONGESTED_CYCLE: 2
 All warmup complete: 2
Channel 0 Bank busy for read cycles: 0
Channel 0 Bank busy for write cycles: 0
Channel 0
Rank 0
0banks busy for read cycles: 484986965
0banks busy for write cycles: 4179
1banks busy for read cycles: 94246745
1banks busy for write cycles: 730279
2banks busy for read cycles: 51987582
2banks busy for write cycles: 98162
3banks busy for read cycles: 1002893
3banks busy for write cycles: 20728
4banks busy for read cycles: 511144
4banks busy for write cycles: 1595
5banks busy for read cycles: 7106
5banks busy for write cycles: 432
6banks busy for read cycles: 1018
6banks busy for write cycles: 0
7banks busy for read cycles: 0
7banks busy for write cycles: 0
8banks busy for read cycles: 0
8banks busy for write cycles: 0

CPU 0 Branch Prediction Accuracy: 99.9621% MPKI: 0.097185 Average ROB Occupancy at Mispredict: 310.77
Branch types
NOT_BRANCH: 148719231 74.3596%
BRANCH_DIRECT_JUMP: 4318196 2.1591%
BRANCH_INDIRECT: 0 0%
BRANCH_CONDITIONAL: 42641844 21.3209%
BRANCH_DIRECT_CALL: 2160361 1.08018%
BRANCH_INDIRECT_CALL: 0 0%
BRANCH_RETURN: 2160362 1.08018%
BRANCH_OTHER: 0 0%

DRAM PAGES: 1048576
Allocated PAGES: 76297
