
*** ChampSim Multicore Out-of-Order Simulator ***

Warmup Instructions: 50000000
Simulation Instructions: 200000000
Number of CPUs: 1
LLC sets: 2048
LLC ways: 16
Off-chip DRAM Size: 4096 MB Channels: 1 Width: 64-bit Data Rate: 6400 MT/s
CPU 0 runs traces/spec2k17/client_008.champsimtrace.xz
.xz
BTB has LRU replacement policy
ITLB has LRU replacement policy
DTLB has LRU replacement policy
STLB has LRU replacement policy
L1I has LRU replacement policy
CPU 0 L2C next line prefetcher
L1D has LRU replacement policy
Initialize SRRIP state for L2C
Initialize DRRIP state for LLC
Heartbeat CPU 0 instructions: 10000000 cycles: 2914461 heartbeat IPC: 3.43117 cumulative IPC: 3.43117 (Simulation time: 0 hr 0 min 47 sec) 
Heartbeat CPU 0 instructions: 20000001 cycles: 5848967 heartbeat IPC: 3.40773 cumulative IPC: 3.41941 (Simulation time: 0 hr 1 min 34 sec) 
Heartbeat CPU 0 instructions: 30000001 cycles: 8758491 heartbeat IPC: 3.43699 cumulative IPC: 3.42525 (Simulation time: 0 hr 2 min 16 sec) 
Heartbeat CPU 0 instructions: 40000003 cycles: 11695045 heartbeat IPC: 3.40535 cumulative IPC: 3.42025 (Simulation time: 0 hr 3 min 3 sec) 
Heartbeat CPU 0 instructions: 50000002 cycles: 14627920 heartbeat IPC: 3.40962 cumulative IPC: 3.41812 (Simulation time: 0 hr 3 min 45 sec) 

Warmup complete CPU 0 instructions: 50000002 cycles: 14627920 (Simulation time: 0 hr 3 min 45 sec) 

Heartbeat CPU 0 instructions: 60000000 cycles: 35600992 heartbeat IPC: 0.476802 cumulative IPC: 0.476802 (Simulation time: 0 hr 4 min 35 sec) 
Heartbeat CPU 0 instructions: 70000000 cycles: 56424484 heartbeat IPC: 0.480227 cumulative IPC: 0.478508 (Simulation time: 0 hr 5 min 28 sec) 
Heartbeat CPU 0 instructions: 80000000 cycles: 77587980 heartbeat IPC: 0.472512 cumulative IPC: 0.476493 (Simulation time: 0 hr 6 min 23 sec) 
Heartbeat CPU 0 instructions: 90000003 cycles: 106710235 heartbeat IPC: 0.34338 cumulative IPC: 0.434394 (Simulation time: 0 hr 7 min 24 sec) 
Heartbeat CPU 0 instructions: 100000001 cycles: 123112444 heartbeat IPC: 0.609674 cumulative IPC: 0.460895 (Simulation time: 0 hr 8 min 17 sec) 
*** Reached end of trace for Core: 0 Repeating trace: traces/spec2k17/client_008.champsimtrace.xz
Heartbeat CPU 0 instructions: 110000000 cycles: 144343444 heartbeat IPC: 0.471009 cumulative IPC: 0.462551 (Simulation time: 0 hr 9 min 12 sec) 
Heartbeat CPU 0 instructions: 120000001 cycles: 166560768 heartbeat IPC: 0.450099 cumulative IPC: 0.46073 (Simulation time: 0 hr 10 min 6 sec) 
Heartbeat CPU 0 instructions: 130000000 cycles: 190031795 heartbeat IPC: 0.426057 cumulative IPC: 0.45609 (Simulation time: 0 hr 11 min 0 sec) 
Heartbeat CPU 0 instructions: 140000002 cycles: 212335260 heartbeat IPC: 0.448361 cumulative IPC: 0.455218 (Simulation time: 0 hr 11 min 52 sec) 
Heartbeat CPU 0 instructions: 150000001 cycles: 235459111 heartbeat IPC: 0.432454 cumulative IPC: 0.452835 (Simulation time: 0 hr 12 min 45 sec) 
Heartbeat CPU 0 instructions: 160000000 cycles: 257201874 heartbeat IPC: 0.459923 cumulative IPC: 0.45347 (Simulation time: 0 hr 13 min 38 sec) 
Heartbeat CPU 0 instructions: 170000000 cycles: 277751134 heartbeat IPC: 0.486636 cumulative IPC: 0.45606 (Simulation time: 0 hr 14 min 34 sec) 
Heartbeat CPU 0 instructions: 180000000 cycles: 296990183 heartbeat IPC: 0.519776 cumulative IPC: 0.460401 (Simulation time: 0 hr 15 min 26 sec) 
Heartbeat CPU 0 instructions: 190000001 cycles: 326899738 heartbeat IPC: 0.334341 cumulative IPC: 0.448327 (Simulation time: 0 hr 16 min 22 sec) 
Heartbeat CPU 0 instructions: 200000000 cycles: 346261361 heartbeat IPC: 0.516486 cumulative IPC: 0.452307 (Simulation time: 0 hr 17 min 17 sec) 
*** Reached end of trace for Core: 0 Repeating trace: traces/spec2k17/client_008.champsimtrace.xz
Heartbeat CPU 0 instructions: 210000001 cycles: 364400123 heartbeat IPC: 0.551306 cumulative IPC: 0.457441 (Simulation time: 0 hr 18 min 8 sec) 
Heartbeat CPU 0 instructions: 220000000 cycles: 387168501 heartbeat IPC: 0.439206 cumulative IPC: 0.456326 (Simulation time: 0 hr 19 min 1 sec) 
Heartbeat CPU 0 instructions: 230000003 cycles: 409809031 heartbeat IPC: 0.441686 cumulative IPC: 0.455487 (Simulation time: 0 hr 19 min 54 sec) 
Heartbeat CPU 0 instructions: 240000002 cycles: 432459044 heartbeat IPC: 0.441501 cumulative IPC: 0.454729 (Simulation time: 0 hr 20 min 48 sec) 
Heartbeat CPU 0 instructions: 250000002 cycles: 455368843 heartbeat IPC: 0.436494 cumulative IPC: 0.453781 (Simulation time: 0 hr 21 min 43 sec) 
Finished CPU 0 instructions: 200000000 cycles: 440740923 cumulative IPC: 0.453781 (Simulation time: 0 hr 21 min 43 sec) 

ChampSim completed all CPUs

Region of Interest Statistics

CPU 0 cumulative IPC: 0.453781 instructions: 200000000 cycles: 440740923
ITLB TOTAL     ACCESS:   33956040  HIT:   32956758  MISS:     999282  HIT %:    97.0571  MISS %:    2.94287   MPKI: 4.99641
ITLB LOAD TRANSLATION ACCESS:   33956040  HIT:   32956758  MISS:     999282  HIT %:    97.0571  MISS %:    2.94287   MPKI: 4.99641
ITLB PREFETCH  REQUESTED:          0  ISSUED:          0  USEFUL:          0  USELESS:          0
ITLB USEFUL LOAD PREFETCHES:          0 PREFETCH ISSUED TO LOWER LEVEL:          0  ACCURACY: -nan
ITLB TIMELY PREFETCHES:          0 LATE PREFETCHES: 0 DROPPED PREFETCHES: 0
ITLB PREFETCHES SAME FILL-ORIGIN LEVEL: 0 DIFFERENT FILL-ORIGIN LEVEL: 0
ITLB AVERAGE MISS LATENCY: 9.5014 cycles
ITLB RQ	ACCESS:   38141152	FORWARD:          0	MERGED:    3936263	TO_CACHE:   34204889

DTLB TOTAL     ACCESS:   44534742  HIT:   41488161  MISS:    3046581  HIT %:    93.1591  MISS %:    6.84091   MPKI: 15.2329
DTLB LOAD TRANSLATION ACCESS:   44534742  HIT:   41488161  MISS:    3046581  HIT %:    93.1591  MISS %:    6.84091   MPKI: 15.2329
DTLB PREFETCH  REQUESTED:          0  ISSUED:          0  USEFUL:          0  USELESS:          0
DTLB USEFUL LOAD PREFETCHES:          0 PREFETCH ISSUED TO LOWER LEVEL:          0  ACCURACY: -nan
DTLB TIMELY PREFETCHES:          0 LATE PREFETCHES: 0 DROPPED PREFETCHES: 0
DTLB PREFETCHES SAME FILL-ORIGIN LEVEL: 0 DIFFERENT FILL-ORIGIN LEVEL: 0
DTLB AVERAGE MISS LATENCY: 9.47569 cycles
DTLB RQ	ACCESS:   54711355	FORWARD:          0	MERGED:   10085905	TO_CACHE:   44625450

STLB TOTAL     ACCESS:    7183751  HIT:    7152389  MISS:      31362  HIT %:    99.5634  MISS %:   0.436569   MPKI: 0.15681
STLB LOAD TRANSLATION ACCESS:    4045863  HIT:    4015285  MISS:      30578  HIT %:    99.2442  MISS %:   0.755784   MPKI: 0.15289
STLB TRANSLATION FROM L1D PREFETCHER ACCESS:    3137888  HIT:    3137104  MISS:        784  HIT %:     99.975  MISS %:   0.024985   MPKI: 0.00392
STLB PREFETCH  REQUESTED:          0  ISSUED:          0  USEFUL:        701  USELESS:         83
STLB USEFUL LOAD PREFETCHES:        701 PREFETCH ISSUED TO LOWER LEVEL:          0  ACCURACY: inf
STLB TIMELY PREFETCHES:        701 LATE PREFETCHES: 37 DROPPED PREFETCHES: 1632
STLB PREFETCHES SAME FILL-ORIGIN LEVEL: 0 DIFFERENT FILL-ORIGIN LEVEL: 0
STLB AVERAGE MISS LATENCY: 60.6049 cycles
STLB RQ	ACCESS:    7523997	FORWARD:          0	MERGED:     338541	TO_CACHE:    7185456

STLB Hit, L1D data hit: 0
STLB Hit, L2C data hit: 0
STLB Hit, LLC data hit: 0
STLB Hit, LLC data miss: 0
STLB STLB hints to L2: 0
L1D TOTAL     ACCESS:   55407696  HIT:   50018437  MISS:    5389259  HIT %:    90.2734  MISS %:    9.72655   MPKI: 26.9463
L1D LOAD      ACCESS:   37853729  HIT:   34471870  MISS:    3381859  HIT %:     91.066  MISS %:    8.93402   MPKI: 16.9093
L1D RFO       ACCESS:   15597167  HIT:   15257812  MISS:     339355  HIT %:    97.8243  MISS %:    2.17575   MPKI: 1.69677
L1D PREFETCH  ACCESS:    1956800  HIT:     288755  MISS:    1668045  HIT %:    14.7565  MISS %:    85.2435   MPKI: 8.34023
AGUS PREFETCH L1 MISS: 0
L1D PREFETCH  REQUESTED:    7064700  ISSUED:    7064649  USEFUL:     449155  USELESS:    1218890
L1D USEFUL LOAD PREFETCHES:     449155 PREFETCH ISSUED TO LOWER LEVEL:    1719658  ACCURACY: 26.1189
L1D TIMELY PREFETCHES:     449155 LATE PREFETCHES: 49956 DROPPED PREFETCHES: 1701
L1D PREFETCHES SAME FILL-ORIGIN LEVEL: 1719658 DIFFERENT FILL-ORIGIN LEVEL: 0
L1D AVERAGE MISS LATENCY: 2.18374e+06 cycles
L1D RQ	ACCESS:   56715471	FORWARD:          0	MERGED:   18398251	TO_CACHE:   38062527
L1D WQ	ACCESS:   17136260	FORWARD:     255283	MERGED:     487432	TO_CACHE:   16648828
L1D PQ	ACCESS:    3586515	FORWARD:          0	MERGED:     107791	TO_CACHE:    3478134

L1D UNIQUE REGIONS ACCESSED: 0
L1D REGIONS CONFLICTS: 0
L1D Cross Page Prefetch Requests: 104572
L1D Same Page Prefetch Requests: 4503293
L1D ROI Sum of L1D PQ occupancy: 44870693
L1D PREFETCHES PUSHED FROM L2C: 0
L1I TOTAL     ACCESS:   37107058  HIT:   32809183  MISS:    4297875  HIT %:    88.4176  MISS %:    11.5824   MPKI: 21.4894
L1I LOAD      ACCESS:   37107058  HIT:   32809183  MISS:    4297875  HIT %:    88.4176  MISS %:    11.5824   MPKI: 21.4894
L1I PREFETCH  REQUESTED:          0  ISSUED:          0  USEFUL:          0  USELESS:          0
L1I USEFUL LOAD PREFETCHES:          0 PREFETCH ISSUED TO LOWER LEVEL:          0  ACCURACY: -nan
L1I TIMELY PREFETCHES:          0 LATE PREFETCHES: 0 DROPPED PREFETCHES: 0
L1I PREFETCHES SAME FILL-ORIGIN LEVEL: 0 DIFFERENT FILL-ORIGIN LEVEL: 0
L1I AVERAGE MISS LATENCY: 18.1268 cycles
L1I RQ	ACCESS:   62296984	FORWARD:          0	MERGED:   24155832	TO_CACHE:   38141152

BTB TOTAL     ACCESS:   36528429  HIT:   31583049  MISS:    4945380  HIT %:    86.4616  MISS %:    13.5384   MPKI: 24.7269
BTB BRANCH_DIRECT_JUMP	ACCESS:    2061309  HIT:    1966278  MISS:      95031
BTB BRANCH_INDIRECT	ACCESS:   13234606  HIT:   11716494  MISS:    1518112
BTB BRANCH_CONDITIONAL	ACCESS:   12402841  HIT:   12111408  MISS:     291433
BTB BRANCH_DIRECT_CALL	ACCESS:    1759418  HIT:    1715408  MISS:      44010
BTB BRANCH_INDIRECT_CALL	ACCESS:    2655183  HIT:    2016702  MISS:     638481
BTB BRANCH_RETURN	ACCESS:    4415072  HIT:    2056759  MISS:    2358313
BTB BRANCH_OTHER ACCESS:          0  HIT:          0  MISS:          0

L2C TOTAL     ACCESS:   10247182  HIT:    8739129  MISS:    1508053  HIT %:    85.2832  MISS %:    14.7168   MPKI: 7.54026
L2C LOAD      ACCESS:    7629714  HIT:    6813191  MISS:     816523  HIT %:    89.2981  MISS %:    10.7019   MPKI: 4.08261
L2C DATA LOAD MPKI: 2.53929
L2C INSTRUCTION LOAD MPKI: 1.54333
L2C RFO       ACCESS:     337655  HIT:      89230  MISS:     248425  HIT %:    26.4264  MISS %:    73.5736   MPKI: 1.24212
L2C PREFETCH  ACCESS:    1719657  HIT:    1298296  MISS:     421361  HIT %:    75.4974  MISS %:    24.5026   MPKI: 2.10681
AGUS PREFETCH L1 MISS: 0
L2C DATA PREFETCH MPKI: 2.10681
L2C INSTRUCTION PREFETCH MPKI: 0
L2C WRITEBACK ACCESS:     525549  HIT:     517234  MISS:       8315  HIT %:    98.4178  MISS %:    1.58216   MPKI: 0.041575
L2C LOAD TRANSLATION ACCESS:      32116  HIT:      19038  MISS:      13078  HIT %:    59.2789  MISS %:    40.7211   MPKI: 0.06539
L2C TRANSLATION FROM L1D PREFETCHER ACCESS:       2491  HIT:       2140  MISS:        351  HIT %:    85.9093  MISS %:    14.0907   MPKI: 0.001755
L2C PREFETCH  REQUESTED:          0  ISSUED:          0  USEFUL:      46980  USELESS:     374805
L2C USEFUL LOAD PREFETCHES:      46980 PREFETCH ISSUED TO LOWER LEVEL:     421361  ACCURACY: 11.1496
L2C TIMELY PREFETCHES:      46980 LATE PREFETCHES: 0 DROPPED PREFETCHES: 0
L2C PREFETCHES SAME FILL-ORIGIN LEVEL: 0 DIFFERENT FILL-ORIGIN LEVEL: 0
L2C AVERAGE MISS LATENCY: 80.2797 cycles
L2C RQ	ACCESS:    8002084	FORWARD:          0	MERGED:          0	TO_CACHE:    8001977
L2C WQ	ACCESS:     525549	FORWARD:        108	MERGED:          0	TO_CACHE:     525549
L2C PQ	ACCESS:    1719658	FORWARD:          0	MERGED:          0	TO_CACHE:    1719657

L2C Instructions Evicting Data 200942
L2C Translations Evicting Data 9205
L2C Data Evicting Data 969456
L2C Instructions Evicting Instructions 103574
L2C Translations Evicting Instructions 3987
L2C Data Evicting Instructions 199215
L2C Instructions Evicting Translations 4149
L2C Translations Evicting Translations 237
L2C Data Evicting Translations 8973
L2C Dense regions hint from L2: 0
PSCL5 TOTAL     ACCESS:      33005  HIT:      33005  MISS:          0  HIT %:        100  MISS %:          0   MPKI: 0
PSCL5 LOAD TRANSLATION ACCESS:      30552  HIT:      30552  MISS:          0  HIT %:        100  MISS %:          0   MPKI: 0
PSCL5 TRANSLATION FROM L1D PREFETCHER ACCESS:       2453  HIT:       2453  MISS:          0  HIT %:        100  MISS %:          0   MPKI: 0
PSCL5 PREFETCH  REQUESTED:          0  ISSUED:          0  USEFUL:          0  USELESS:          0
PSCL5 USEFUL LOAD PREFETCHES:          0 PREFETCH ISSUED TO LOWER LEVEL:          0  ACCURACY: -nan
PSCL5 TIMELY PREFETCHES:          0 LATE PREFETCHES: 0 DROPPED PREFETCHES: 0
PSCL5 PREFETCHES SAME FILL-ORIGIN LEVEL: 0 DIFFERENT FILL-ORIGIN LEVEL: 0

PSCL4 TOTAL     ACCESS:      33005  HIT:      33005  MISS:          0  HIT %:        100  MISS %:          0   MPKI: 0
PSCL4 LOAD TRANSLATION ACCESS:      30552  HIT:      30552  MISS:          0  HIT %:        100  MISS %:          0   MPKI: 0
PSCL4 TRANSLATION FROM L1D PREFETCHER ACCESS:       2453  HIT:       2453  MISS:          0  HIT %:        100  MISS %:          0   MPKI: 0
PSCL4 PREFETCH  REQUESTED:          0  ISSUED:          0  USEFUL:          0  USELESS:          0
PSCL4 USEFUL LOAD PREFETCHES:          0 PREFETCH ISSUED TO LOWER LEVEL:          0  ACCURACY: -nan
PSCL4 TIMELY PREFETCHES:          0 LATE PREFETCHES: 0 DROPPED PREFETCHES: 0
PSCL4 PREFETCHES SAME FILL-ORIGIN LEVEL: 0 DIFFERENT FILL-ORIGIN LEVEL: 0

PSCL3 TOTAL     ACCESS:      32916  HIT:      32876  MISS:         40  HIT %:    99.8785  MISS %:   0.121521   MPKI: 0.0002
PSCL3 LOAD TRANSLATION ACCESS:      30497  HIT:      30457  MISS:         40  HIT %:    99.8688  MISS %:    0.13116   MPKI: 0.0002
PSCL3 TRANSLATION FROM L1D PREFETCHER ACCESS:       2419  HIT:       2419  MISS:          0  HIT %:        100  MISS %:          0   MPKI: 0
PSCL3 PREFETCH  REQUESTED:          0  ISSUED:          0  USEFUL:          0  USELESS:          0
PSCL3 USEFUL LOAD PREFETCHES:          0 PREFETCH ISSUED TO LOWER LEVEL:          0  ACCURACY: -nan
PSCL3 TIMELY PREFETCHES:          0 LATE PREFETCHES: 0 DROPPED PREFETCHES: 0
PSCL3 PREFETCHES SAME FILL-ORIGIN LEVEL: 0 DIFFERENT FILL-ORIGIN LEVEL: 0

PSCL2 TOTAL     ACCESS:      32963  HIT:      31417  MISS:       1546  HIT %:    95.3099  MISS %:    4.69011   MPKI: 0.00773
PSCL2 LOAD TRANSLATION ACCESS:      30567  HIT:      29021  MISS:       1546  HIT %:    94.9423  MISS %:    5.05774   MPKI: 0.00773
PSCL2 TRANSLATION FROM L1D PREFETCHER ACCESS:       2396  HIT:       2396  MISS:          0  HIT %:        100  MISS %:          0   MPKI: 0
PSCL2 PREFETCH  REQUESTED:          0  ISSUED:          0  USEFUL:          0  USELESS:          0
PSCL2 USEFUL LOAD PREFETCHES:          0 PREFETCH ISSUED TO LOWER LEVEL:          0  ACCURACY: -nan
PSCL2 TIMELY PREFETCHES:          0 LATE PREFETCHES: 0 DROPPED PREFETCHES: 0
PSCL2 PREFETCHES SAME FILL-ORIGIN LEVEL: 0 DIFFERENT FILL-ORIGIN LEVEL: 0

LLC TOTAL     ACCESS:    1831931  HIT:    1300741  MISS:     531190  HIT %:    71.0038  MISS %:    28.9962   MPKI: 2.65595
LLC LOAD      ACCESS:     816523  HIT:     635724  MISS:     180799  HIT %:    77.8575  MISS %:    22.1425   MPKI: 0.903995
LLC RFO       ACCESS:     248425  HIT:      16592  MISS:     231833  HIT %:    6.67888  MISS %:    93.3211   MPKI: 1.15917
LLC PREFETCH  ACCESS:     421360  HIT:     319425  MISS:     101935  HIT %:    75.8081  MISS %:    24.1919   MPKI: 0.509675
AGUS PREFETCH L1 MISS: 0
LLC WRITEBACK ACCESS:     332194  HIT:     319397  MISS:      12797  HIT %:    96.1477  MISS %:    3.85227   MPKI: 0.063985
LLC LOAD TRANSLATION ACCESS:      13078  HIT:       9432  MISS:       3646  HIT %:    72.1211  MISS %:    27.8789   MPKI: 0.01823
LLC TRANSLATION FROM L1D PREFETCHER ACCESS:        351  HIT:        171  MISS:        180  HIT %:    48.7179  MISS %:    51.2821   MPKI: 0.0009
LLC PREFETCH  REQUESTED:          0  ISSUED:          0  USEFUL:      17888  USELESS:      83917
LLC USEFUL LOAD PREFETCHES:      17888 PREFETCH ISSUED TO LOWER LEVEL:     101935  ACCURACY: 17.5484
LLC TIMELY PREFETCHES:      17888 LATE PREFETCHES: 0 DROPPED PREFETCHES: 0
LLC PREFETCHES SAME FILL-ORIGIN LEVEL: 0 DIFFERENT FILL-ORIGIN LEVEL: 0
LLC AVERAGE MISS LATENCY: 143.139 cycles
LLC RQ	ACCESS:    1078377	FORWARD:          0	MERGED:          0	TO_CACHE:    1078377
LLC WQ	ACCESS:     332194	FORWARD:          1	MERGED:          0	TO_CACHE:     332194
LLC PQ	ACCESS:     421361	FORWARD:          0	MERGED:          0	TO_CACHE:     421360

LLC Dense regions hint to LLC: 0

RAW hits: 3378077
Loads Generated: 60093550
Loads sent to L1D: 56715471
Stores Generated: 17136254
Stores sent to L1D: 17136260
Major fault: 0 Minor fault: 5379
Allocated PAGES: 5379
CPU 0 L1d next line prefetcher final stats

-63,1065
-62,1051
-61,870
-60,845
-59,862
-58,882
-57,855
-56,839
-55,910
-54,1017
-53,948
-52,948
-51,890
-50,892
-49,1033
-48,1054
-47,997
-46,950
-45,1037
-44,1018
-43,979
-42,1209
-41,1002
-40,1136
-39,1101
-38,1062
-37,1185
-36,1133
-35,941
-34,1113
-33,1240
-32,1234
-31,1255
-30,1268
-29,1132
-28,1099
-27,1289
-26,1217
-25,1334
-24,1329
-23,1143
-22,1259
-21,1450
-20,1471
-19,1436
-18,1551
-17,1493
-16,1517
-15,1799
-14,1500
-13,1590
-12,1619
-11,1822
-10,1771
-9,1929
-8,1852
-7,1860
-6,2289
-5,2430
-4,2630
-3,3201
-2,3218
-1,4889
0,7940
1,8550
2,6964
3,6118
4,4896
5,4620
6,5477
7,4138
8,4182
9,4311
10,3660
11,3454
12,3471
13,3028
14,3139
15,3411
16,3231
17,2896
18,2845
19,2589
20,2670
21,2935
22,2496
23,2414
24,2769
25,2479
26,2275
27,2502
28,2199
29,2213
30,2446
31,2423
32,2374
33,2326
34,2116
35,1950
36,2217
37,2189
38,2166
39,2164
40,2094
41,1909
42,2022
43,1941
44,1871
45,1909
46,1991
47,1944
48,1958
49,1822
50,1918
51,1868
52,1830
53,1816
54,1839
55,1719
56,1748
57,1677
58,1822
59,1813
60,1703
61,1632
62,1764
63,1865

DRAM Statistics
 CHANNEL 0
 RQ ROW_BUFFER_HIT:     145245  ROW_BUFFER_MISS:     373137
 DBUS_CONGESTED:        329
 WQ ROW_BUFFER_HIT:      46659  ROW_BUFFER_MISS:     225300  FULL:          0

 AVG_CONGESTED_CYCLE: 4
 All warmup complete: 2
Channel 0 Bank busy for read cycles: 0
Channel 0 Bank busy for write cycles: 0
Channel 0
Rank 0
0banks busy for read cycles: 367408634
0banks busy for write cycles: 128261
1banks busy for read cycles: 33215010
1banks busy for write cycles: 17352250
2banks busy for read cycles: 9801649
2banks busy for write cycles: 5411326
3banks busy for read cycles: 1585809
3banks busy for write cycles: 1887582
4banks busy for read cycles: 511830
4banks busy for write cycles: 894165
5banks busy for read cycles: 187712
5banks busy for write cycles: 489464
6banks busy for read cycles: 95432
6banks busy for write cycles: 350505
7banks busy for read cycles: 94749
7banks busy for write cycles: 345950
8banks busy for read cycles: 184241
8banks busy for write cycles: 796355

CPU 0 Branch Prediction Accuracy: 99.1917% MPKI: 1.85351 Average ROB Occupancy at Mispredict: 21.3537
Branch types
NOT_BRANCH: 154137311 77.0687%
BRANCH_DIRECT_JUMP: 2061309 1.03065%
BRANCH_INDIRECT: 13234606 6.6173%
BRANCH_CONDITIONAL: 21736759 10.8684%
BRANCH_DIRECT_CALL: 1759418 0.879709%
BRANCH_INDIRECT_CALL: 2655183 1.32759%
BRANCH_RETURN: 4415072 2.20754%
BRANCH_OTHER: 0 0%

DRAM PAGES: 1048576
Allocated PAGES: 5379
