
*** ChampSim Multicore Out-of-Order Simulator ***

Warmup Instructions: 50000000
Simulation Instructions: 200000000
Number of CPUs: 1
LLC sets: 2048
LLC ways: 16
Off-chip DRAM Size: 4096 MB Channels: 1 Width: 64-bit Data Rate: 6400 MT/s
CPU 0 runs traces/spec2k17/server_018.champsimtrace.xz
.xz
BTB has LRU replacement policy
ITLB has LRU replacement policy
DTLB has LRU replacement policy
STLB has LRU replacement policy
L1I has LRU replacement policy
CPU 0 L2C next line prefetcher
L1D has LRU replacement policy
Initialize SRRIP state for L2C
Initialize DRRIP state for LLC
Heartbeat CPU 0 instructions: 10000001 cycles: 2939810 heartbeat IPC: 3.40158 cumulative IPC: 3.40158 (Simulation time: 0 hr 0 min 44 sec) 
Heartbeat CPU 0 instructions: 20000000 cycles: 5878017 heartbeat IPC: 3.40344 cumulative IPC: 3.40251 (Simulation time: 0 hr 1 min 30 sec) 
Heartbeat CPU 0 instructions: 30000000 cycles: 8797832 heartbeat IPC: 3.42487 cumulative IPC: 3.40993 (Simulation time: 0 hr 2 min 13 sec) 
Heartbeat CPU 0 instructions: 40000001 cycles: 11660678 heartbeat IPC: 3.49303 cumulative IPC: 3.43033 (Simulation time: 0 hr 2 min 49 sec) 
Heartbeat CPU 0 instructions: 50000001 cycles: 14596574 heartbeat IPC: 3.40612 cumulative IPC: 3.42546 (Simulation time: 0 hr 3 min 30 sec) 

Warmup complete CPU 0 instructions: 50000001 cycles: 14596574 (Simulation time: 0 hr 3 min 30 sec) 

Heartbeat CPU 0 instructions: 60000001 cycles: 36235145 heartbeat IPC: 0.462138 cumulative IPC: 0.462138 (Simulation time: 0 hr 4 min 40 sec) 
Heartbeat CPU 0 instructions: 70000003 cycles: 57628167 heartbeat IPC: 0.467442 cumulative IPC: 0.464775 (Simulation time: 0 hr 5 min 44 sec) 
Heartbeat CPU 0 instructions: 80000002 cycles: 79056641 heartbeat IPC: 0.466669 cumulative IPC: 0.465404 (Simulation time: 0 hr 6 min 57 sec) 
Heartbeat CPU 0 instructions: 90000000 cycles: 100609870 heartbeat IPC: 0.463968 cumulative IPC: 0.465044 (Simulation time: 0 hr 8 min 6 sec) 
Heartbeat CPU 0 instructions: 100000001 cycles: 121902561 heartbeat IPC: 0.469645 cumulative IPC: 0.465957 (Simulation time: 0 hr 9 min 15 sec) 
*** Reached end of trace for Core: 0 Repeating trace: traces/spec2k17/server_018.champsimtrace.xz
Heartbeat CPU 0 instructions: 110000000 cycles: 142705005 heartbeat IPC: 0.480713 cumulative IPC: 0.468353 (Simulation time: 0 hr 10 min 26 sec) 
Heartbeat CPU 0 instructions: 120000000 cycles: 162992610 heartbeat IPC: 0.492912 cumulative IPC: 0.471711 (Simulation time: 0 hr 11 min 31 sec) 
Heartbeat CPU 0 instructions: 130000000 cycles: 183236732 heartbeat IPC: 0.493971 cumulative IPC: 0.474383 (Simulation time: 0 hr 12 min 40 sec) 
Heartbeat CPU 0 instructions: 140000003 cycles: 209917784 heartbeat IPC: 0.374798 cumulative IPC: 0.460779 (Simulation time: 0 hr 13 min 46 sec) 
Heartbeat CPU 0 instructions: 150000001 cycles: 235298422 heartbeat IPC: 0.394001 cumulative IPC: 0.4531 (Simulation time: 0 hr 14 min 59 sec) 
Heartbeat CPU 0 instructions: 160000001 cycles: 256725720 heartbeat IPC: 0.466694 cumulative IPC: 0.454303 (Simulation time: 0 hr 16 min 12 sec) 
Heartbeat CPU 0 instructions: 170000000 cycles: 278165096 heartbeat IPC: 0.466431 cumulative IPC: 0.45529 (Simulation time: 0 hr 17 min 22 sec) 
Heartbeat CPU 0 instructions: 180000000 cycles: 299373811 heartbeat IPC: 0.471504 cumulative IPC: 0.456497 (Simulation time: 0 hr 18 min 33 sec) 
Heartbeat CPU 0 instructions: 190000001 cycles: 320382260 heartbeat IPC: 0.475999 cumulative IPC: 0.457837 (Simulation time: 0 hr 19 min 42 sec) 
Heartbeat CPU 0 instructions: 200000001 cycles: 340787921 heartbeat IPC: 0.49006 cumulative IPC: 0.459853 (Simulation time: 0 hr 20 min 50 sec) 
Heartbeat CPU 0 instructions: 210000003 cycles: 361157774 heartbeat IPC: 0.490922 cumulative IPC: 0.461679 (Simulation time: 0 hr 22 min 0 sec) 
*** Reached end of trace for Core: 0 Repeating trace: traces/spec2k17/server_018.champsimtrace.xz
Heartbeat CPU 0 instructions: 220000000 cycles: 381454471 heartbeat IPC: 0.492691 cumulative IPC: 0.463395 (Simulation time: 0 hr 23 min 7 sec) 
Heartbeat CPU 0 instructions: 230000003 cycles: 401746870 heartbeat IPC: 0.492795 cumulative IPC: 0.464936 (Simulation time: 0 hr 24 min 20 sec) 
Heartbeat CPU 0 instructions: 240000000 cycles: 422026763 heartbeat IPC: 0.493099 cumulative IPC: 0.466338 (Simulation time: 0 hr 25 min 27 sec) 
Heartbeat CPU 0 instructions: 250000002 cycles: 451675345 heartbeat IPC: 0.337284 cumulative IPC: 0.457583 (Simulation time: 0 hr 26 min 37 sec) 
Finished CPU 0 instructions: 200000001 cycles: 437078771 cumulative IPC: 0.457583 (Simulation time: 0 hr 26 min 37 sec) 

ChampSim completed all CPUs

Region of Interest Statistics

CPU 0 cumulative IPC: 0.457583 instructions: 200000001 cycles: 437078771
ITLB TOTAL     ACCESS:   33585623  HIT:   32169591  MISS:    1416032  HIT %:    95.7838  MISS %:    4.21619   MPKI: 7.08016
ITLB LOAD TRANSLATION ACCESS:   33585623  HIT:   32169591  MISS:    1416032  HIT %:    95.7838  MISS %:    4.21619   MPKI: 7.08016
ITLB PREFETCH  REQUESTED:          0  ISSUED:          0  USEFUL:          0  USELESS:          0
ITLB USEFUL LOAD PREFETCHES:          0 PREFETCH ISSUED TO LOWER LEVEL:          0  ACCURACY: -nan
ITLB TIMELY PREFETCHES:          0 LATE PREFETCHES: 0 DROPPED PREFETCHES: 0
ITLB PREFETCHES SAME FILL-ORIGIN LEVEL: 0 DIFFERENT FILL-ORIGIN LEVEL: 0
ITLB AVERAGE MISS LATENCY: 9.41791 cycles
ITLB RQ	ACCESS:   40222132	FORWARD:          0	MERGED:    6180311	TO_CACHE:   34041821

DTLB TOTAL     ACCESS:   38860446  HIT:   37253730  MISS:    1606716  HIT %:    95.8654  MISS %:    4.13458   MPKI: 8.03358
DTLB LOAD TRANSLATION ACCESS:   38860446  HIT:   37253730  MISS:    1606716  HIT %:    95.8654  MISS %:    4.13458   MPKI: 8.03358
DTLB PREFETCH  REQUESTED:          0  ISSUED:          0  USEFUL:          0  USELESS:          0
DTLB USEFUL LOAD PREFETCHES:          0 PREFETCH ISSUED TO LOWER LEVEL:          0  ACCURACY: -nan
DTLB TIMELY PREFETCHES:          0 LATE PREFETCHES: 0 DROPPED PREFETCHES: 0
DTLB PREFETCHES SAME FILL-ORIGIN LEVEL: 0 DIFFERENT FILL-ORIGIN LEVEL: 0
DTLB AVERAGE MISS LATENCY: 17.4792 cycles
DTLB RQ	ACCESS:   58727958	FORWARD:          0	MERGED:   19496437	TO_CACHE:   39231521

STLB TOTAL     ACCESS:    5389782  HIT:    5239285  MISS:     150497  HIT %:    97.2077  MISS %:    2.79227   MPKI: 0.752485
STLB LOAD TRANSLATION ACCESS:    3022748  HIT:    2879162  MISS:     143586  HIT %:    95.2498  MISS %:    4.75018   MPKI: 0.71793
STLB TRANSLATION FROM L1D PREFETCHER ACCESS:    2367034  HIT:    2360123  MISS:       6911  HIT %:     99.708  MISS %:   0.291969   MPKI: 0.034555
STLB PREFETCH  REQUESTED:          0  ISSUED:          0  USEFUL:       5247  USELESS:       1669
STLB USEFUL LOAD PREFETCHES:       5247 PREFETCH ISSUED TO LOWER LEVEL:          0  ACCURACY: inf
STLB TIMELY PREFETCHES:       5247 LATE PREFETCHES: 1014 DROPPED PREFETCHES: 6947
STLB PREFETCHES SAME FILL-ORIGIN LEVEL: 0 DIFFERENT FILL-ORIGIN LEVEL: 0
STLB AVERAGE MISS LATENCY: 484813 cycles
STLB RQ	ACCESS:    6047417	FORWARD:          0	MERGED:     647276	TO_CACHE:    5400141

STLB Hit, L1D data hit: 0
STLB Hit, L2C data hit: 0
STLB Hit, LLC data hit: 0
STLB Hit, LLC data miss: 0
STLB STLB hints to L2: 0
L1D TOTAL     ACCESS:   49604178  HIT:   41723269  MISS:    7880909  HIT %:    84.1124  MISS %:    15.8876   MPKI: 39.4045
L1D LOAD      ACCESS:   26121396  HIT:   23294167  MISS:    2827229  HIT %:    89.1766  MISS %:    10.8234   MPKI: 14.1361
L1D RFO       ACCESS:   21497541  HIT:   18114539  MISS:    3383002  HIT %:    84.2633  MISS %:    15.7367   MPKI: 16.915
L1D PREFETCH  ACCESS:    1985241  HIT:     314563  MISS:    1670678  HIT %:    15.8451  MISS %:    84.1549   MPKI: 8.35339
AGUS PREFETCH L1 MISS: 0
L1D PREFETCH  REQUESTED:    6201946  ISSUED:    6200720  USEFUL:     508909  USELESS:    1161814
L1D USEFUL LOAD PREFETCHES:     508909 PREFETCH ISSUED TO LOWER LEVEL:    2044071  ACCURACY: 24.8968
L1D TIMELY PREFETCHES:     508909 LATE PREFETCHES: 368928 DROPPED PREFETCHES: 9080
L1D PREFETCHES SAME FILL-ORIGIN LEVEL: 2044071 DIFFERENT FILL-ORIGIN LEVEL: 0
L1D AVERAGE MISS LATENCY: 1.07231e+07 cycles
L1D RQ	ACCESS:   44371034	FORWARD:          0	MERGED:   17643025	TO_CACHE:   26474417
L1D WQ	ACCESS:   32470506	FORWARD:     253890	MERGED:     216965	TO_CACHE:   32253541
L1D PQ	ACCESS:    3176051	FORWARD:          0	MERGED:     151084	TO_CACHE:    3024669

L1D UNIQUE REGIONS ACCESSED: 0
L1D REGIONS CONFLICTS: 0
L1D Cross Page Prefetch Requests: 114480
L1D Same Page Prefetch Requests: 3758034
L1D ROI Sum of L1D PQ occupancy: 44711382
L1D PREFETCHES PUSHED FROM L2C: 0
L1I TOTAL     ACCESS:   37748043  HIT:   29290092  MISS:    8457951  HIT %:    77.5937  MISS %:    22.4063   MPKI: 42.2898
L1I LOAD      ACCESS:   37748043  HIT:   29290092  MISS:    8457951  HIT %:    77.5937  MISS %:    22.4063   MPKI: 42.2898
L1I PREFETCH  REQUESTED:          0  ISSUED:          0  USEFUL:          0  USELESS:          0
L1I USEFUL LOAD PREFETCHES:          0 PREFETCH ISSUED TO LOWER LEVEL:          0  ACCURACY: -nan
L1I TIMELY PREFETCHES:          0 LATE PREFETCHES: 0 DROPPED PREFETCHES: 0
L1I PREFETCHES SAME FILL-ORIGIN LEVEL: 0 DIFFERENT FILL-ORIGIN LEVEL: 0
L1I AVERAGE MISS LATENCY: 16.9911 cycles
L1I RQ	ACCESS:   58422850	FORWARD:          0	MERGED:   18200718	TO_CACHE:   40222132

BTB TOTAL     ACCESS:   25716646  HIT:   24056121  MISS:    1660525  HIT %:     93.543  MISS %:      6.457   MPKI: 8.30262
BTB BRANCH_DIRECT_JUMP	ACCESS:    1725252  HIT:    1715409  MISS:       9843
BTB BRANCH_INDIRECT	ACCESS:    9825525  HIT:    9169775  MISS:     655750
BTB BRANCH_CONDITIONAL	ACCESS:    7516536  HIT:    7503101  MISS:      13435
BTB BRANCH_DIRECT_CALL	ACCESS:    2628849  HIT:    2596393  MISS:      32456
BTB BRANCH_INDIRECT_CALL	ACCESS:     695837  HIT:     593013  MISS:     102824
BTB BRANCH_RETURN	ACCESS:    3324647  HIT:    2478430  MISS:     846217
BTB BRANCH_OTHER ACCESS:          0  HIT:          0  MISS:          0

L2C TOTAL     ACCESS:   20768569  HIT:   13454777  MISS:    7313792  HIT %:    64.7843  MISS %:    35.2157   MPKI: 36.569
L2C LOAD      ACCESS:   10915905  HIT:    8617655  MISS:    2298250  HIT %:    78.9459  MISS %:    21.0541   MPKI: 11.4912
L2C DATA LOAD MPKI: 8.69263
L2C INSTRUCTION LOAD MPKI: 2.79861
L2C RFO       ACCESS:    3378519  HIT:     120427  MISS:    3258092  HIT %:    3.56449  MISS %:    96.4355   MPKI: 16.2905
L2C PREFETCH  ACCESS:    2044066  HIT:     513301  MISS:    1530765  HIT %:    25.1118  MISS %:    74.8882   MPKI: 7.65382
AGUS PREFETCH L1 MISS: 0
L2C DATA PREFETCH MPKI: 7.65382
L2C INSTRUCTION PREFETCH MPKI: 0
L2C WRITEBACK ACCESS:    4240998  HIT:    4113616  MISS:     127382  HIT %:    96.9964  MISS %:    3.00359   MPKI: 0.63691
L2C LOAD TRANSLATION ACCESS:     170284  HIT:      75778  MISS:      94506  HIT %:     44.501  MISS %:     55.499   MPKI: 0.47253
L2C TRANSLATION FROM L1D PREFETCHER ACCESS:      18797  HIT:      14000  MISS:       4797  HIT %:      74.48  MISS %:      25.52   MPKI: 0.023985
L2C PREFETCH  REQUESTED:          0  ISSUED:          0  USEFUL:      61979  USELESS:    1474133
L2C USEFUL LOAD PREFETCHES:      61979 PREFETCH ISSUED TO LOWER LEVEL:    1530765  ACCURACY: 4.04889
L2C TIMELY PREFETCHES:      61979 LATE PREFETCHES: 0 DROPPED PREFETCHES: 0
L2C PREFETCHES SAME FILL-ORIGIN LEVEL: 0 DIFFERENT FILL-ORIGIN LEVEL: 0
L2C AVERAGE MISS LATENCY: 176.102 cycles
L2C RQ	ACCESS:   14483869	FORWARD:          0	MERGED:          0	TO_CACHE:   14483506
L2C WQ	ACCESS:    4240999	FORWARD:        369	MERGED:          0	TO_CACHE:    4240999
L2C PQ	ACCESS:    2044071	FORWARD:          0	MERGED:          0	TO_CACHE:    2044065

L2C Instructions Evicting Data 507812
L2C Translations Evicting Data 90300
L2C Data Evicting Data 5940842
L2C Instructions Evicting Instructions 44228
L2C Translations Evicting Instructions 7538
L2C Data Evicting Instructions 497558
L2C Instructions Evicting Translations 7683
L2C Translations Evicting Translations 1465
L2C Data Evicting Translations 88984
L2C Dense regions hint from L2: 0
PSCL5 TOTAL     ACCESS:     157445  HIT:     157445  MISS:          0  HIT %:        100  MISS %:          0   MPKI: 0
PSCL5 LOAD TRANSLATION ACCESS:     142573  HIT:     142573  MISS:          0  HIT %:        100  MISS %:          0   MPKI: 0
PSCL5 TRANSLATION FROM L1D PREFETCHER ACCESS:      14872  HIT:      14872  MISS:          0  HIT %:        100  MISS %:          0   MPKI: 0
PSCL5 PREFETCH  REQUESTED:          0  ISSUED:          0  USEFUL:          0  USELESS:          0
PSCL5 USEFUL LOAD PREFETCHES:          0 PREFETCH ISSUED TO LOWER LEVEL:          0  ACCURACY: -nan
PSCL5 TIMELY PREFETCHES:          0 LATE PREFETCHES: 0 DROPPED PREFETCHES: 0
PSCL5 PREFETCHES SAME FILL-ORIGIN LEVEL: 0 DIFFERENT FILL-ORIGIN LEVEL: 0

PSCL4 TOTAL     ACCESS:     150967  HIT:     150576  MISS:        391  HIT %:     99.741  MISS %:   0.258997   MPKI: 0.001955
PSCL4 LOAD TRANSLATION ACCESS:     137634  HIT:     137243  MISS:        391  HIT %:    99.7159  MISS %:   0.284087   MPKI: 0.001955
PSCL4 TRANSLATION FROM L1D PREFETCHER ACCESS:      13333  HIT:      13333  MISS:          0  HIT %:        100  MISS %:          0   MPKI: 0
PSCL4 PREFETCH  REQUESTED:          0  ISSUED:          0  USEFUL:          0  USELESS:          0
PSCL4 USEFUL LOAD PREFETCHES:          0 PREFETCH ISSUED TO LOWER LEVEL:          0  ACCURACY: -nan
PSCL4 TIMELY PREFETCHES:          0 LATE PREFETCHES: 0 DROPPED PREFETCHES: 0
PSCL4 PREFETCHES SAME FILL-ORIGIN LEVEL: 0 DIFFERENT FILL-ORIGIN LEVEL: 0

PSCL3 TOTAL     ACCESS:     157249  HIT:     156850  MISS:        399  HIT %:    99.7463  MISS %:   0.253738   MPKI: 0.001995
PSCL3 LOAD TRANSLATION ACCESS:     142507  HIT:     142108  MISS:        399  HIT %:      99.72  MISS %:   0.279986   MPKI: 0.001995
PSCL3 TRANSLATION FROM L1D PREFETCHER ACCESS:      14742  HIT:      14742  MISS:          0  HIT %:        100  MISS %:          0   MPKI: 0
PSCL3 PREFETCH  REQUESTED:          0  ISSUED:          0  USEFUL:          0  USELESS:          0
PSCL3 USEFUL LOAD PREFETCHES:          0 PREFETCH ISSUED TO LOWER LEVEL:          0  ACCURACY: -nan
PSCL3 TIMELY PREFETCHES:          0 LATE PREFETCHES: 0 DROPPED PREFETCHES: 0
PSCL3 PREFETCHES SAME FILL-ORIGIN LEVEL: 0 DIFFERENT FILL-ORIGIN LEVEL: 0

PSCL2 TOTAL     ACCESS:     154094  HIT:     126567  MISS:      27527  HIT %:    82.1362  MISS %:    17.8638   MPKI: 0.137635
PSCL2 LOAD TRANSLATION ACCESS:     143121  HIT:     115594  MISS:      27527  HIT %:    80.7666  MISS %:    19.2334   MPKI: 0.137635
PSCL2 TRANSLATION FROM L1D PREFETCHER ACCESS:      10973  HIT:      10973  MISS:          0  HIT %:        100  MISS %:          0   MPKI: 0
PSCL2 PREFETCH  REQUESTED:          0  ISSUED:          0  USEFUL:          0  USELESS:          0
PSCL2 USEFUL LOAD PREFETCHES:          0 PREFETCH ISSUED TO LOWER LEVEL:          0  ACCURACY: -nan
PSCL2 TIMELY PREFETCHES:          0 LATE PREFETCHES: 0 DROPPED PREFETCHES: 0
PSCL2 PREFETCHES SAME FILL-ORIGIN LEVEL: 0 DIFFERENT FILL-ORIGIN LEVEL: 0

LLC TOTAL     ACCESS:   11143187  HIT:    5157309  MISS:    5985878  HIT %:    46.2822  MISS %:    53.7178   MPKI: 29.9294
LLC LOAD      ACCESS:    2298238  HIT:    1286346  MISS:    1011892  HIT %:     55.971  MISS %:     44.029   MPKI: 5.05946
LLC RFO       ACCESS:    3258076  HIT:     686728  MISS:    2571348  HIT %:    21.0777  MISS %:    78.9223   MPKI: 12.8567
LLC PREFETCH  ACCESS:    1530764  HIT:     562320  MISS:     968444  HIT %:    36.7346  MISS %:    63.2654   MPKI: 4.84222
AGUS PREFETCH L1 MISS: 0
LLC WRITEBACK ACCESS:    3956806  HIT:    2557470  MISS:    1399336  HIT %:    64.6347  MISS %:    35.3653   MPKI: 6.99668
LLC LOAD TRANSLATION ACCESS:      94506  HIT:      62032  MISS:      32474  HIT %:    65.6382  MISS %:    34.3618   MPKI: 0.16237
LLC TRANSLATION FROM L1D PREFETCHER ACCESS:       4797  HIT:       2413  MISS:       2384  HIT %:    50.3023  MISS %:    49.6977   MPKI: 0.01192
LLC PREFETCH  REQUESTED:          0  ISSUED:          0  USEFUL:      20614  USELESS:     954907
LLC USEFUL LOAD PREFETCHES:      20614 PREFETCH ISSUED TO LOWER LEVEL:     968444  ACCURACY: 2.12857
LLC TIMELY PREFETCHES:      20614 LATE PREFETCHES: 0 DROPPED PREFETCHES: 0
LLC PREFETCHES SAME FILL-ORIGIN LEVEL: 0 DIFFERENT FILL-ORIGIN LEVEL: 0
LLC AVERAGE MISS LATENCY: 178.736 cycles
LLC RQ	ACCESS:    5655645	FORWARD:          0	MERGED:          0	TO_CACHE:    5655617
LLC WQ	ACCESS:    3956807	FORWARD:         29	MERGED:          0	TO_CACHE:    3956807
LLC PQ	ACCESS:    1530765	FORWARD:          0	MERGED:          0	TO_CACHE:    1530764

LLC Dense regions hint to LLC: 0

RAW hits: 2479371
Loads Generated: 46850405
Loads sent to L1D: 44371034
Stores Generated: 32470487
Stores sent to L1D: 32470506
Major fault: 0 Minor fault: 22612
Allocated PAGES: 22612
CPU 0 L1d next line prefetcher final stats

-63,1522
-62,1522
-61,1417
-60,1929
-59,1406
-58,1415
-57,1361
-56,1469
-55,1439
-54,1433
-53,1415
-52,1413
-51,1604
-50,1509
-49,1504
-48,1607
-47,1423
-46,1590
-45,1498
-44,1523
-43,1484
-42,1402
-41,1522
-40,1610
-39,1649
-38,1608
-37,1726
-36,1743
-35,1847
-34,1840
-33,1632
-32,2211
-31,1803
-30,2110
-29,1620
-28,1804
-27,1639
-26,1550
-25,1451
-24,1664
-23,1629
-22,1589
-21,1538
-20,1795
-19,1585
-18,1718
-17,1573
-16,1816
-15,1644
-14,1793
-13,1471
-12,1500
-11,1750
-10,1401
-9,1518
-8,1689
-7,1478
-6,1740
-5,1675
-4,1953
-3,1919
-2,2479
-1,4147
0,5147
1,11778
2,10707
3,9861
4,10051
5,9344
6,9476
7,8843
8,9429
9,8590
10,7991
11,8061
12,8129
13,7640
14,7954
15,7936
16,8824
17,7964
18,7283
19,7468
20,7408
21,7001
22,6880
23,7068
24,7299
25,6892
26,6384
27,6119
28,6447
29,6216
30,6286
31,6250
32,7060
33,6136
34,6002
35,5852
36,6069
37,5704
38,5710
39,5791
40,6248
41,5743
42,5428
43,5550
44,5550
45,5420
46,5341
47,5417
48,5884
49,5345
50,5172
51,5124
52,5069
53,4896
54,4920
55,5046
56,5407
57,4949
58,4888
59,4824
60,5344
61,4830
62,4962
63,4937

DRAM Statistics
 CHANNEL 0
 RQ ROW_BUFFER_HIT:    1681186  ROW_BUFFER_MISS:    2904877
 DBUS_CONGESTED:       1456
 WQ ROW_BUFFER_HIT:     614050  ROW_BUFFER_MISS:    2283128  FULL:      17646

 AVG_CONGESTED_CYCLE: 3
 All warmup complete: 2
Channel 0 Bank busy for read cycles: 0
Channel 0 Bank busy for write cycles: 0
Channel 0
Rank 0
0banks busy for read cycles: 152633474
0banks busy for write cycles: 226383
1banks busy for read cycles: 53606413
1banks busy for write cycles: 29443493
2banks busy for read cycles: 39576494
2banks busy for write cycles: 17784774
3banks busy for read cycles: 20053876
3banks busy for write cycles: 11207431
4banks busy for read cycles: 8447135
4banks busy for write cycles: 7492259
5banks busy for read cycles: 5768101
5banks busy for write cycles: 5029601
6banks busy for read cycles: 6341428
6banks busy for write cycles: 4036309
7banks busy for read cycles: 9726022
7banks busy for write cycles: 6196722
8banks busy for read cycles: 21027360
8banks busy for write cycles: 38481497

CPU 0 Branch Prediction Accuracy: 99.9405% MPKI: 0.09271 Average ROB Occupancy at Mispredict: 110.785
Branch types
NOT_BRANCH: 168823601 84.4118%
BRANCH_DIRECT_JUMP: 1725252 0.862626%
BRANCH_INDIRECT: 9825525 4.91276%
BRANCH_CONDITIONAL: 12976223 6.48811%
BRANCH_DIRECT_CALL: 2628849 1.31442%
BRANCH_INDIRECT_CALL: 695837 0.347918%
BRANCH_RETURN: 3324647 1.66232%
BRANCH_OTHER: 0 0%

DRAM PAGES: 1048576
Allocated PAGES: 22612
