
*** ChampSim Multicore Out-of-Order Simulator ***

Warmup Instructions: 50000000
Simulation Instructions: 200000000
Number of CPUs: 1
LLC sets: 2048
LLC ways: 16
Off-chip DRAM Size: 4096 MB Channels: 1 Width: 64-bit Data Rate: 6400 MT/s
CPU 0 runs traces/spec2k17/server_039.champsimtrace.xz
.xz
BTB has LRU replacement policy
ITLB has LRU replacement policy
DTLB has LRU replacement policy
STLB has LRU replacement policy
L1I has LRU replacement policy
CPU 0 L2C next line prefetcher
L1D has LRU replacement policy
Initialize SRRIP state for L2C
Initialize DRRIP state for LLC
Heartbeat CPU 0 instructions: 10000003 cycles: 2753098 heartbeat IPC: 3.63227 cumulative IPC: 3.63227 (Simulation time: 0 hr 0 min 26 sec) 
Heartbeat CPU 0 instructions: 20000002 cycles: 5502988 heartbeat IPC: 3.63651 cumulative IPC: 3.63439 (Simulation time: 0 hr 0 min 51 sec) 
Heartbeat CPU 0 instructions: 30000003 cycles: 8253695 heartbeat IPC: 3.63543 cumulative IPC: 3.63474 (Simulation time: 0 hr 1 min 17 sec) 
Heartbeat CPU 0 instructions: 40000000 cycles: 11004617 heartbeat IPC: 3.63514 cumulative IPC: 3.63484 (Simulation time: 0 hr 1 min 43 sec) 
Heartbeat CPU 0 instructions: 50000000 cycles: 13755542 heartbeat IPC: 3.63514 cumulative IPC: 3.6349 (Simulation time: 0 hr 2 min 9 sec) 

Warmup complete CPU 0 instructions: 50000004 cycles: 13755543 (Simulation time: 0 hr 2 min 9 sec) 

Heartbeat CPU 0 instructions: 60000001 cycles: 32935164 heartbeat IPC: 0.521387 cumulative IPC: 0.521387 (Simulation time: 0 hr 2 min 58 sec) 
Heartbeat CPU 0 instructions: 70000002 cycles: 52055852 heartbeat IPC: 0.522994 cumulative IPC: 0.522189 (Simulation time: 0 hr 3 min 49 sec) 
Heartbeat CPU 0 instructions: 80000001 cycles: 71180675 heartbeat IPC: 0.522881 cumulative IPC: 0.522419 (Simulation time: 0 hr 4 min 37 sec) 
Heartbeat CPU 0 instructions: 90000002 cycles: 90363941 heartbeat IPC: 0.521288 cumulative IPC: 0.522136 (Simulation time: 0 hr 5 min 28 sec) 
Heartbeat CPU 0 instructions: 100000000 cycles: 109581269 heartbeat IPC: 0.520364 cumulative IPC: 0.52178 (Simulation time: 0 hr 6 min 20 sec) 
Heartbeat CPU 0 instructions: 110000000 cycles: 128799299 heartbeat IPC: 0.520345 cumulative IPC: 0.521541 (Simulation time: 0 hr 7 min 10 sec) 
Heartbeat CPU 0 instructions: 120000002 cycles: 147959857 heartbeat IPC: 0.521906 cumulative IPC: 0.521593 (Simulation time: 0 hr 8 min 0 sec) 
Heartbeat CPU 0 instructions: 130000000 cycles: 167096430 heartbeat IPC: 0.52256 cumulative IPC: 0.521713 (Simulation time: 0 hr 8 min 51 sec) 
Heartbeat CPU 0 instructions: 140000000 cycles: 186231669 heartbeat IPC: 0.522596 cumulative IPC: 0.521811 (Simulation time: 0 hr 9 min 40 sec) 
Heartbeat CPU 0 instructions: 150000000 cycles: 205356993 heartbeat IPC: 0.522867 cumulative IPC: 0.521917 (Simulation time: 0 hr 10 min 30 sec) 
Heartbeat CPU 0 instructions: 160000000 cycles: 224486221 heartbeat IPC: 0.52276 cumulative IPC: 0.521993 (Simulation time: 0 hr 11 min 21 sec) 
*** Reached end of trace for Core: 0 Repeating trace: traces/spec2k17/server_039.champsimtrace.xz
Heartbeat CPU 0 instructions: 170000001 cycles: 243939992 heartbeat IPC: 0.514039 cumulative IPC: 0.521321 (Simulation time: 0 hr 12 min 8 sec) 
Heartbeat CPU 0 instructions: 180000000 cycles: 262980633 heartbeat IPC: 0.525192 cumulative IPC: 0.521617 (Simulation time: 0 hr 12 min 58 sec) 
Heartbeat CPU 0 instructions: 190000003 cycles: 282004002 heartbeat IPC: 0.525669 cumulative IPC: 0.521904 (Simulation time: 0 hr 13 min 45 sec) 
Heartbeat CPU 0 instructions: 200000002 cycles: 301144317 heartbeat IPC: 0.522457 cumulative IPC: 0.521941 (Simulation time: 0 hr 14 min 36 sec) 
Heartbeat CPU 0 instructions: 210000001 cycles: 320277360 heartbeat IPC: 0.522656 cumulative IPC: 0.521986 (Simulation time: 0 hr 15 min 28 sec) 
Heartbeat CPU 0 instructions: 220000000 cycles: 339402701 heartbeat IPC: 0.522866 cumulative IPC: 0.522037 (Simulation time: 0 hr 16 min 18 sec) 
Heartbeat CPU 0 instructions: 230000003 cycles: 358518801 heartbeat IPC: 0.523119 cumulative IPC: 0.522097 (Simulation time: 0 hr 17 min 8 sec) 
Heartbeat CPU 0 instructions: 240000003 cycles: 377639889 heartbeat IPC: 0.522983 cumulative IPC: 0.522144 (Simulation time: 0 hr 18 min 1 sec) 
Heartbeat CPU 0 instructions: 250000000 cycles: 396815873 heartbeat IPC: 0.521485 cumulative IPC: 0.522111 (Simulation time: 0 hr 18 min 51 sec) 
Finished CPU 0 instructions: 200000000 cycles: 383060331 cumulative IPC: 0.522111 (Simulation time: 0 hr 18 min 51 sec) 

ChampSim completed all CPUs

Region of Interest Statistics

CPU 0 cumulative IPC: 0.522111 instructions: 200000000 cycles: 383060331
ITLB TOTAL     ACCESS:   35879530  HIT:   33724807  MISS:    2154723  HIT %:    93.9946  MISS %:    6.00544   MPKI: 10.7736
ITLB LOAD TRANSLATION ACCESS:   35879530  HIT:   33724807  MISS:    2154723  HIT %:    93.9946  MISS %:    6.00544   MPKI: 10.7736
ITLB PREFETCH  REQUESTED:          0  ISSUED:          0  USEFUL:          0  USELESS:          0
ITLB USEFUL LOAD PREFETCHES:          0 PREFETCH ISSUED TO LOWER LEVEL:          0  ACCURACY: -nan
ITLB TIMELY PREFETCHES:          0 LATE PREFETCHES: 0 DROPPED PREFETCHES: 0
ITLB PREFETCHES SAME FILL-ORIGIN LEVEL: 0 DIFFERENT FILL-ORIGIN LEVEL: 0
ITLB AVERAGE MISS LATENCY: 9.01682 cycles
ITLB RQ	ACCESS:   41248831	FORWARD:          0	MERGED:    4958034	TO_CACHE:   36290797

DTLB TOTAL     ACCESS:   40676334  HIT:   39494154  MISS:    1182180  HIT %:    97.0937  MISS %:    2.90631   MPKI: 5.9109
DTLB LOAD TRANSLATION ACCESS:   40676334  HIT:   39494154  MISS:    1182180  HIT %:    97.0937  MISS %:    2.90631   MPKI: 5.9109
DTLB PREFETCH  REQUESTED:          0  ISSUED:          0  USEFUL:          0  USELESS:          0
DTLB USEFUL LOAD PREFETCHES:          0 PREFETCH ISSUED TO LOWER LEVEL:          0  ACCURACY: -nan
DTLB TIMELY PREFETCHES:          0 LATE PREFETCHES: 0 DROPPED PREFETCHES: 0
DTLB PREFETCHES SAME FILL-ORIGIN LEVEL: 0 DIFFERENT FILL-ORIGIN LEVEL: 0
DTLB AVERAGE MISS LATENCY: 9.03838 cycles
DTLB RQ	ACCESS:   58379024	FORWARD:          0	MERGED:   17632653	TO_CACHE:   40746371

STLB TOTAL     ACCESS:    3499675  HIT:    3499405  MISS:        270  HIT %:    99.9923  MISS %:   0.007715   MPKI: 0.00135
STLB LOAD TRANSLATION ACCESS:    3336903  HIT:    3336633  MISS:        270  HIT %:    99.9919  MISS %: 0.00809133   MPKI: 0.00135
STLB TRANSLATION FROM L1D PREFETCHER ACCESS:     162772  HIT:     162772  MISS:          0  HIT %:        100  MISS %:          0   MPKI: 0
STLB PREFETCH  REQUESTED:          0  ISSUED:          0  USEFUL:          0  USELESS:          0
STLB USEFUL LOAD PREFETCHES:          0 PREFETCH ISSUED TO LOWER LEVEL:          0  ACCURACY: -nan
STLB TIMELY PREFETCHES:          0 LATE PREFETCHES: 0 DROPPED PREFETCHES: 0
STLB PREFETCHES SAME FILL-ORIGIN LEVEL: 0 DIFFERENT FILL-ORIGIN LEVEL: 0
STLB AVERAGE MISS LATENCY: 199.778 cycles
STLB RQ	ACCESS:    3499784	FORWARD:          0	MERGED:        108	TO_CACHE:    3499676

STLB Hit, L1D data hit: 0
STLB Hit, L2C data hit: 0
STLB Hit, LLC data hit: 0
STLB Hit, LLC data miss: 0
STLB STLB hints to L2: 0
L1D TOTAL     ACCESS:   58317608  HIT:   58122765  MISS:     194843  HIT %:    99.6659  MISS %:   0.334107   MPKI: 0.974215
L1D LOAD      ACCESS:   30392161  HIT:   30228974  MISS:     163187  HIT %:    99.4631  MISS %:   0.536938   MPKI: 0.815935
L1D RFO       ACCESS:   27925396  HIT:   27893740  MISS:      31656  HIT %:    99.8866  MISS %:   0.113359   MPKI: 0.15828
L1D PREFETCH  ACCESS:         51  HIT:         51  MISS:          0  HIT %:        100  MISS %:          0   MPKI: 0
AGUS PREFETCH L1 MISS: 0
L1D PREFETCH  REQUESTED:     326258  ISSUED:     326258  USEFUL:          3  USELESS:         57
L1D USEFUL LOAD PREFETCHES:          3 PREFETCH ISSUED TO LOWER LEVEL:          0  ACCURACY: inf
L1D TIMELY PREFETCHES:          3 LATE PREFETCHES: 0 DROPPED PREFETCHES: 0
L1D PREFETCHES SAME FILL-ORIGIN LEVEL: 0 DIFFERENT FILL-ORIGIN LEVEL: 0
L1D AVERAGE MISS LATENCY: 15.8451 cycles
L1D RQ	ACCESS:   46560582	FORWARD:          0	MERGED:   15650121	TO_CACHE:   30392750
L1D WQ	ACCESS:   28081962	FORWARD:     517711	MERGED:      95688	TO_CACHE:   27986274
L1D PQ	ACCESS:     163378	FORWARD:          0	MERGED:        498	TO_CACHE:     162880

L1D UNIQUE REGIONS ACCESSED: 0
L1D REGIONS CONFLICTS: 0
L1D Cross Page Prefetch Requests: 1864
L1D Same Page Prefetch Requests: 204867
L1D ROI Sum of L1D PQ occupancy: 2122747
L1D PREFETCHES PUSHED FROM L2C: 0
L1I TOTAL     ACCESS:   37027002  HIT:   21595845  MISS:   15431157  HIT %:    58.3246  MISS %:    41.6754   MPKI: 77.1558
L1I LOAD      ACCESS:   37027002  HIT:   21595845  MISS:   15431157  HIT %:    58.3246  MISS %:    41.6754   MPKI: 77.1558
L1I PREFETCH  REQUESTED:          0  ISSUED:          0  USEFUL:          0  USELESS:          0
L1I USEFUL LOAD PREFETCHES:          0 PREFETCH ISSUED TO LOWER LEVEL:          0  ACCURACY: -nan
L1I TIMELY PREFETCHES:          0 LATE PREFETCHES: 0 DROPPED PREFETCHES: 0
L1I PREFETCHES SAME FILL-ORIGIN LEVEL: 0 DIFFERENT FILL-ORIGIN LEVEL: 0
L1I AVERAGE MISS LATENCY: 14.0608 cycles
L1I RQ	ACCESS:   61059278	FORWARD:          0	MERGED:   19810447	TO_CACHE:   41248831

BTB TOTAL     ACCESS:   27154127  HIT:   23772575  MISS:    3381552  HIT %:    87.5468  MISS %:    12.4532   MPKI: 16.9078
BTB BRANCH_DIRECT_JUMP	ACCESS:    1854668  HIT:    1769509  MISS:      85159
BTB BRANCH_INDIRECT	ACCESS:   11982974  HIT:   10669647  MISS:    1313327
BTB BRANCH_CONDITIONAL	ACCESS:    4186045  HIT:    4086497  MISS:      99548
BTB BRANCH_DIRECT_CALL	ACCESS:    3881854  HIT:    3707800  MISS:     174054
BTB BRANCH_INDIRECT_CALL	ACCESS:     683366  HIT:     534468  MISS:     148898
BTB BRANCH_RETURN	ACCESS:    4565220  HIT:    3004654  MISS:    1560566
BTB BRANCH_OTHER ACCESS:          0  HIT:          0  MISS:          0

L2C TOTAL     ACCESS:   15714712  HIT:   15712199  MISS:       2513  HIT %:     99.984  MISS %:  0.0159914   MPKI: 0.012565
L2C LOAD      ACCESS:   15594344  HIT:   15592376  MISS:       1968  HIT %:    99.9874  MISS %:    0.01262   MPKI: 0.00984
L2C DATA LOAD MPKI: 0.00255
L2C INSTRUCTION LOAD MPKI: 0.00729
L2C RFO       ACCESS:      31656  HIT:      31243  MISS:        413  HIT %:    98.6954  MISS %:    1.30465   MPKI: 0.002065
L2C WRITEBACK ACCESS:      88425  HIT:      88404  MISS:         21  HIT %:    99.9763  MISS %:  0.0237489   MPKI: 0.000105
L2C LOAD TRANSLATION ACCESS:        287  HIT:        176  MISS:        111  HIT %:     61.324  MISS %:     38.676   MPKI: 0.000555
L2C PREFETCH  REQUESTED:          0  ISSUED:          0  USEFUL:         66  USELESS:         23
L2C USEFUL LOAD PREFETCHES:         66 PREFETCH ISSUED TO LOWER LEVEL:          0  ACCURACY: inf
L2C TIMELY PREFETCHES:         66 LATE PREFETCHES: 0 DROPPED PREFETCHES: 0
L2C PREFETCHES SAME FILL-ORIGIN LEVEL: 0 DIFFERENT FILL-ORIGIN LEVEL: 0
L2C AVERAGE MISS LATENCY: 166.15 cycles
L2C RQ	ACCESS:   15626287	FORWARD:          0	MERGED:          0	TO_CACHE:   15626287
L2C WQ	ACCESS:      88425	FORWARD:          0	MERGED:          0	TO_CACHE:      88425

L2C Instructions Evicting Data 50
L2C Translations Evicting Data 0
L2C Data Evicting Data 41
L2C Instructions Evicting Instructions 70
L2C Translations Evicting Instructions 4
L2C Data Evicting Instructions 33
L2C Instructions Evicting Translations 12
L2C Translations Evicting Translations 0
L2C Data Evicting Translations 5
L2C Dense regions hint from L2: 0
PSCL5 TOTAL     ACCESS:        270  HIT:        270  MISS:          0  HIT %:        100  MISS %:          0   MPKI: 0
PSCL5 LOAD TRANSLATION ACCESS:        270  HIT:        270  MISS:          0  HIT %:        100  MISS %:          0   MPKI: 0
PSCL5 PREFETCH  REQUESTED:          0  ISSUED:          0  USEFUL:          0  USELESS:          0
PSCL5 USEFUL LOAD PREFETCHES:          0 PREFETCH ISSUED TO LOWER LEVEL:          0  ACCURACY: -nan
PSCL5 TIMELY PREFETCHES:          0 LATE PREFETCHES: 0 DROPPED PREFETCHES: 0
PSCL5 PREFETCHES SAME FILL-ORIGIN LEVEL: 0 DIFFERENT FILL-ORIGIN LEVEL: 0

PSCL4 TOTAL     ACCESS:         96  HIT:         96  MISS:          0  HIT %:        100  MISS %:          0   MPKI: 0
PSCL4 LOAD TRANSLATION ACCESS:         96  HIT:         96  MISS:          0  HIT %:        100  MISS %:          0   MPKI: 0
PSCL4 PREFETCH  REQUESTED:          0  ISSUED:          0  USEFUL:          0  USELESS:          0
PSCL4 USEFUL LOAD PREFETCHES:          0 PREFETCH ISSUED TO LOWER LEVEL:          0  ACCURACY: -nan
PSCL4 TIMELY PREFETCHES:          0 LATE PREFETCHES: 0 DROPPED PREFETCHES: 0
PSCL4 PREFETCHES SAME FILL-ORIGIN LEVEL: 0 DIFFERENT FILL-ORIGIN LEVEL: 0

PSCL3 TOTAL     ACCESS:        260  HIT:        259  MISS:          1  HIT %:    99.6154  MISS %:   0.384615   MPKI: 5e-06
PSCL3 LOAD TRANSLATION ACCESS:        260  HIT:        259  MISS:          1  HIT %:    99.6154  MISS %:   0.384615   MPKI: 5e-06
PSCL3 PREFETCH  REQUESTED:          0  ISSUED:          0  USEFUL:          0  USELESS:          0
PSCL3 USEFUL LOAD PREFETCHES:          0 PREFETCH ISSUED TO LOWER LEVEL:          0  ACCURACY: -nan
PSCL3 TIMELY PREFETCHES:          0 LATE PREFETCHES: 0 DROPPED PREFETCHES: 0
PSCL3 PREFETCHES SAME FILL-ORIGIN LEVEL: 0 DIFFERENT FILL-ORIGIN LEVEL: 0

PSCL2 TOTAL     ACCESS:        270  HIT:        245  MISS:         25  HIT %:    90.7407  MISS %:    9.25926   MPKI: 0.000125
PSCL2 LOAD TRANSLATION ACCESS:        270  HIT:        245  MISS:         25  HIT %:    90.7407  MISS %:    9.25926   MPKI: 0.000125
PSCL2 PREFETCH  REQUESTED:          0  ISSUED:          0  USEFUL:          0  USELESS:          0
PSCL2 USEFUL LOAD PREFETCHES:          0 PREFETCH ISSUED TO LOWER LEVEL:          0  ACCURACY: -nan
PSCL2 TIMELY PREFETCHES:          0 LATE PREFETCHES: 0 DROPPED PREFETCHES: 0
PSCL2 PREFETCHES SAME FILL-ORIGIN LEVEL: 0 DIFFERENT FILL-ORIGIN LEVEL: 0

LLC TOTAL     ACCESS:       2499  HIT:         58  MISS:       2441  HIT %:    2.32093  MISS %:    97.6791   MPKI: 0.012205
LLC LOAD      ACCESS:       1968  HIT:         48  MISS:       1920  HIT %:    2.43902  MISS %:     97.561   MPKI: 0.0096
LLC RFO       ACCESS:        413  HIT:          2  MISS:        411  HIT %:   0.484262  MISS %:    99.5157   MPKI: 0.002055
LLC WRITEBACK ACCESS:          7  HIT:          7  MISS:          0  HIT %:        100  MISS %:          0   MPKI: 0
LLC LOAD TRANSLATION ACCESS:        111  HIT:          1  MISS:        110  HIT %:   0.900901  MISS %:    99.0991   MPKI: 0.00055
LLC PREFETCH  REQUESTED:          0  ISSUED:          0  USEFUL:          1  USELESS:          2
LLC USEFUL LOAD PREFETCHES:          1 PREFETCH ISSUED TO LOWER LEVEL:          0  ACCURACY: inf
LLC TIMELY PREFETCHES:          1 LATE PREFETCHES: 0 DROPPED PREFETCHES: 0
LLC PREFETCHES SAME FILL-ORIGIN LEVEL: 0 DIFFERENT FILL-ORIGIN LEVEL: 0
LLC AVERAGE MISS LATENCY: 138.022 cycles
LLC RQ	ACCESS:       2492	FORWARD:          0	MERGED:          0	TO_CACHE:       2492
LLC WQ	ACCESS:          7	FORWARD:          0	MERGED:          0	TO_CACHE:          7

LLC Dense regions hint to LLC: 0

RAW hits: 2224596
Loads Generated: 48785178
Loads sent to L1D: 46560582
Stores Generated: 28081946
Stores sent to L1D: 28081962
Major fault: 0 Minor fault: 690
Allocated PAGES: 690
CPU 0 L1d next line prefetcher final stats

-63,1
-62,22
-61,2
-60,5
-59,0
-58,13
-57,2
-56,2
-55,1
-54,0
-53,0
-52,18
-51,25
-50,0
-49,16
-48,0
-47,79
-46,2
-45,3
-44,1
-43,4
-42,0
-41,0
-40,1
-39,26
-38,0
-37,19
-36,0
-35,0
-34,0
-33,26
-32,0
-31,30
-30,1
-29,16
-28,8
-27,1
-26,2
-25,1
-24,37
-23,17
-22,105
-21,42
-20,102
-19,66
-18,54
-17,151
-16,29
-15,85
-14,71
-13,131
-12,91
-11,47
-10,125
-9,7
-8,3
-7,30
-6,90
-5,84
-4,161
-3,421
-2,518
-1,130
0,1617
1,213
2,357
3,227
4,241
5,220
6,366
7,212
8,504
9,134
10,456
11,130
12,234
13,179
14,122
15,91
16,229
17,259
18,91
19,125
20,5
21,68
22,1
23,32
24,6
25,94
26,72
27,70
28,71
29,22
30,151
31,21
32,59
33,35
34,62
35,34
36,4
37,1
38,2
39,3
40,78
41,0
42,81
43,75
44,103
45,4
46,58
47,2
48,120
49,0
50,13
51,111
52,5
53,124
54,2
55,4
56,1
57,1
58,3
59,0
60,6
61,20
62,20
63,34

DRAM Statistics
 CHANNEL 0
 RQ ROW_BUFFER_HIT:        870  ROW_BUFFER_MISS:       1571
 DBUS_CONGESTED:          0
 WQ ROW_BUFFER_HIT:          0  ROW_BUFFER_MISS:          0  FULL:          0

 AVG_CONGESTED_CYCLE: -
 All warmup complete: 2
Channel 0 Bank busy for read cycles: 0
Channel 0 Bank busy for write cycles: 0
Channel 0
Rank 0
0banks busy for read cycles: 382836262
0banks busy for write cycles: 0
1banks busy for read cycles: 179971
1banks busy for write cycles: 0
2banks busy for read cycles: 36842
2banks busy for write cycles: 0
3banks busy for read cycles: 5204
3banks busy for write cycles: 0
4banks busy for read cycles: 1240
4banks busy for write cycles: 0
5banks busy for read cycles: 298
5banks busy for write cycles: 0
6banks busy for read cycles: 315
6banks busy for write cycles: 0
7banks busy for read cycles: 55
7banks busy for write cycles: 0
8banks busy for read cycles: 145
8banks busy for write cycles: 0

CPU 0 Branch Prediction Accuracy: 99.9368% MPKI: 0.10154 Average ROB Occupancy at Mispredict: 5.40521
Branch types
NOT_BRANCH: 167870716 83.9354%
BRANCH_DIRECT_JUMP: 1854668 0.927334%
BRANCH_INDIRECT: 11982974 5.99149%
BRANCH_CONDITIONAL: 9161158 4.58058%
BRANCH_DIRECT_CALL: 3881854 1.94093%
BRANCH_INDIRECT_CALL: 683366 0.341683%
BRANCH_RETURN: 4565220 2.28261%
BRANCH_OTHER: 0 0%

DRAM PAGES: 1048576
Allocated PAGES: 690
