
*** ChampSim Multicore Out-of-Order Simulator ***

Warmup Instructions: 50000000
Simulation Instructions: 200000000
Number of CPUs: 1
LLC sets: 2048
LLC ways: 16
Off-chip DRAM Size: 4096 MB Channels: 1 Width: 64-bit Data Rate: 6400 MT/s
CPU 0 runs traces/spec2k17/server_023.champsimtrace.xz
.xz
BTB has LRU replacement policy
ITLB has LRU replacement policy
DTLB has LRU replacement policy
STLB has LRU replacement policy
L1I has LRU replacement policy
CPU 0 L2C next line prefetcher
L1D has LRU replacement policy
Initialize SRRIP state for L2C
Initialize DRRIP state for LLC
Heartbeat CPU 0 instructions: 10000000 cycles: 2824022 heartbeat IPC: 3.54105 cumulative IPC: 3.54105 (Simulation time: 0 hr 0 min 39 sec) 
Heartbeat CPU 0 instructions: 20000001 cycles: 5637230 heartbeat IPC: 3.55466 cumulative IPC: 3.54784 (Simulation time: 0 hr 1 min 18 sec) 
Heartbeat CPU 0 instructions: 30000002 cycles: 8451658 heartbeat IPC: 3.55312 cumulative IPC: 3.5496 (Simulation time: 0 hr 1 min 58 sec) 
Heartbeat CPU 0 instructions: 40000003 cycles: 11267651 heartbeat IPC: 3.55115 cumulative IPC: 3.54999 (Simulation time: 0 hr 2 min 34 sec) 
Heartbeat CPU 0 instructions: 50000003 cycles: 14084065 heartbeat IPC: 3.55061 cumulative IPC: 3.55011 (Simulation time: 0 hr 3 min 10 sec) 

Warmup complete CPU 0 instructions: 50000003 cycles: 14084065 (Simulation time: 0 hr 3 min 10 sec) 

Heartbeat CPU 0 instructions: 60000002 cycles: 44766480 heartbeat IPC: 0.32592 cumulative IPC: 0.32592 (Simulation time: 0 hr 4 min 10 sec) 
Heartbeat CPU 0 instructions: 70000002 cycles: 75055115 heartbeat IPC: 0.330157 cumulative IPC: 0.328025 (Simulation time: 0 hr 5 min 8 sec) 
Heartbeat CPU 0 instructions: 80000000 cycles: 105358531 heartbeat IPC: 0.329996 cumulative IPC: 0.328679 (Simulation time: 0 hr 6 min 5 sec) 
Heartbeat CPU 0 instructions: 90000000 cycles: 131971202 heartbeat IPC: 0.375761 cumulative IPC: 0.339308 (Simulation time: 0 hr 7 min 1 sec) 
Heartbeat CPU 0 instructions: 100000001 cycles: 162059046 heartbeat IPC: 0.33236 cumulative IPC: 0.337895 (Simulation time: 0 hr 7 min 57 sec) 
*** Reached end of trace for Core: 0 Repeating trace: traces/spec2k17/server_023.champsimtrace.xz
Heartbeat CPU 0 instructions: 110000000 cycles: 193014472 heartbeat IPC: 0.323045 cumulative IPC: 0.335326 (Simulation time: 0 hr 8 min 54 sec) 
Heartbeat CPU 0 instructions: 120000001 cycles: 222782470 heartbeat IPC: 0.335931 cumulative IPC: 0.335412 (Simulation time: 0 hr 9 min 53 sec) 
Heartbeat CPU 0 instructions: 130000000 cycles: 253458644 heartbeat IPC: 0.325986 cumulative IPC: 0.334204 (Simulation time: 0 hr 10 min 52 sec) 
Heartbeat CPU 0 instructions: 140000001 cycles: 283333192 heartbeat IPC: 0.334733 cumulative IPC: 0.334263 (Simulation time: 0 hr 11 min 48 sec) 
Heartbeat CPU 0 instructions: 150000001 cycles: 313662014 heartbeat IPC: 0.329719 cumulative IPC: 0.333803 (Simulation time: 0 hr 12 min 43 sec) 
Heartbeat CPU 0 instructions: 160000001 cycles: 344337815 heartbeat IPC: 0.32599 cumulative IPC: 0.333077 (Simulation time: 0 hr 13 min 38 sec) 
Heartbeat CPU 0 instructions: 170000000 cycles: 374052291 heartbeat IPC: 0.336536 cumulative IPC: 0.333363 (Simulation time: 0 hr 14 min 33 sec) 
Heartbeat CPU 0 instructions: 180000001 cycles: 404854151 heartbeat IPC: 0.324656 cumulative IPC: 0.332676 (Simulation time: 0 hr 15 min 34 sec) 
Heartbeat CPU 0 instructions: 190000003 cycles: 431224706 heartbeat IPC: 0.379211 cumulative IPC: 0.335618 (Simulation time: 0 hr 16 min 24 sec) 
Heartbeat CPU 0 instructions: 200000003 cycles: 461407891 heartbeat IPC: 0.33131 cumulative IPC: 0.335328 (Simulation time: 0 hr 17 min 22 sec) 
*** Reached end of trace for Core: 0 Repeating trace: traces/spec2k17/server_023.champsimtrace.xz
Heartbeat CPU 0 instructions: 210000000 cycles: 491922745 heartbeat IPC: 0.327709 cumulative IPC: 0.334841 (Simulation time: 0 hr 18 min 20 sec) 
Heartbeat CPU 0 instructions: 220000000 cycles: 522124793 heartbeat IPC: 0.331103 cumulative IPC: 0.334619 (Simulation time: 0 hr 19 min 19 sec) 
Heartbeat CPU 0 instructions: 230000001 cycles: 552402386 heartbeat IPC: 0.330277 cumulative IPC: 0.334375 (Simulation time: 0 hr 20 min 16 sec) 
Heartbeat CPU 0 instructions: 240000001 cycles: 582222024 heartbeat IPC: 0.335349 cumulative IPC: 0.334426 (Simulation time: 0 hr 21 min 14 sec) 
Heartbeat CPU 0 instructions: 250000001 cycles: 612703013 heartbeat IPC: 0.328073 cumulative IPC: 0.334102 (Simulation time: 0 hr 22 min 14 sec) 
Finished CPU 0 instructions: 200000002 cycles: 598618949 cumulative IPC: 0.334102 (Simulation time: 0 hr 22 min 14 sec) 

ChampSim completed all CPUs

Region of Interest Statistics

CPU 0 cumulative IPC: 0.334102 instructions: 200000002 cycles: 598618949
ITLB TOTAL     ACCESS:   34721414  HIT:   32913016  MISS:    1808398  HIT %:    94.7917  MISS %:    5.20831   MPKI: 9.04199
ITLB LOAD TRANSLATION ACCESS:   34721414  HIT:   32913016  MISS:    1808398  HIT %:    94.7917  MISS %:    5.20831   MPKI: 9.04199
ITLB PREFETCH  REQUESTED:          0  ISSUED:          0  USEFUL:          0  USELESS:          0
ITLB USEFUL LOAD PREFETCHES:          0 PREFETCH ISSUED TO LOWER LEVEL:          0  ACCURACY: -nan
ITLB TIMELY PREFETCHES:          0 LATE PREFETCHES: 0 DROPPED PREFETCHES: 0
ITLB PREFETCHES SAME FILL-ORIGIN LEVEL: 0 DIFFERENT FILL-ORIGIN LEVEL: 0
ITLB AVERAGE MISS LATENCY: 9.08259 cycles
ITLB RQ	ACCESS:   40436423	FORWARD:          0	MERGED:    5280763	TO_CACHE:   35155660

DTLB TOTAL     ACCESS:   44801212  HIT:   43024647  MISS:    1776565  HIT %:    96.0346  MISS %:    3.96544   MPKI: 8.88282
DTLB LOAD TRANSLATION ACCESS:   44801212  HIT:   43024647  MISS:    1776565  HIT %:    96.0346  MISS %:    3.96544   MPKI: 8.88282
DTLB PREFETCH  REQUESTED:          0  ISSUED:          0  USEFUL:          0  USELESS:          0
DTLB USEFUL LOAD PREFETCHES:          0 PREFETCH ISSUED TO LOWER LEVEL:          0  ACCURACY: -nan
DTLB TIMELY PREFETCHES:          0 LATE PREFETCHES: 0 DROPPED PREFETCHES: 0
DTLB PREFETCHES SAME FILL-ORIGIN LEVEL: 0 DIFFERENT FILL-ORIGIN LEVEL: 0
DTLB AVERAGE MISS LATENCY: 9.35982 cycles
DTLB RQ	ACCESS:   59138701	FORWARD:          0	MERGED:   14270253	TO_CACHE:   44868448

STLB TOTAL     ACCESS:    6021148  HIT:    6010130  MISS:      11018  HIT %:     99.817  MISS %:   0.182988   MPKI: 0.05509
STLB LOAD TRANSLATION ACCESS:    3584963  HIT:    3574300  MISS:      10663  HIT %:    99.7026  MISS %:   0.297437   MPKI: 0.053315
STLB TRANSLATION FROM L1D PREFETCHER ACCESS:    2436185  HIT:    2435830  MISS:        355  HIT %:    99.9854  MISS %:   0.014572   MPKI: 0.001775
STLB PREFETCH  REQUESTED:          0  ISSUED:          0  USEFUL:        312  USELESS:         43
STLB USEFUL LOAD PREFETCHES:        312 PREFETCH ISSUED TO LOWER LEVEL:          0  ACCURACY: inf
STLB TIMELY PREFETCHES:        312 LATE PREFETCHES: 170 DROPPED PREFETCHES: 7367
STLB PREFETCHES SAME FILL-ORIGIN LEVEL: 0 DIFFERENT FILL-ORIGIN LEVEL: 0
STLB AVERAGE MISS LATENCY: 149116 cycles
STLB RQ	ACCESS:    6257032	FORWARD:          0	MERGED:     227629	TO_CACHE:    6029403

STLB Hit, L1D data hit: 0
STLB Hit, L2C data hit: 0
STLB Hit, LLC data hit: 0
STLB Hit, LLC data miss: 0
STLB STLB hints to L2: 0
L1D TOTAL     ACCESS:   59470926  HIT:   53974074  MISS:    5496852  HIT %:    90.7571  MISS %:    9.24292   MPKI: 27.4843
L1D LOAD      ACCESS:   33245655  HIT:   30631442  MISS:    2614213  HIT %:    92.1367  MISS %:    7.86332   MPKI: 13.0711
L1D RFO       ACCESS:   24092042  HIT:   23010454  MISS:    1081588  HIT %:    95.5106  MISS %:     4.4894   MPKI: 5.40794
L1D PREFETCH  ACCESS:    2133229  HIT:     332178  MISS:    1801051  HIT %:    15.5716  MISS %:    84.4284   MPKI: 9.00525
AGUS PREFETCH L1 MISS: 0
L1D PREFETCH  REQUESTED:    5388923  ISSUED:    5388923  USEFUL:     401652  USELESS:    1399403
L1D USEFUL LOAD PREFETCHES:     401652 PREFETCH ISSUED TO LOWER LEVEL:    2001848  ACCURACY: 20.0641
L1D TIMELY PREFETCHES:     401652 LATE PREFETCHES: 199814 DROPPED PREFETCHES: 8248
L1D PREFETCHES SAME FILL-ORIGIN LEVEL: 2001848 DIFFERENT FILL-ORIGIN LEVEL: 0
L1D AVERAGE MISS LATENCY: 1.152e+07 cycles
L1D RQ	ACCESS:   46483694	FORWARD:          0	MERGED:   12839135	TO_CACHE:   33353318
L1D WQ	ACCESS:   25954686	FORWARD:     291372	MERGED:     169303	TO_CACHE:   25785383
L1D PQ	ACCESS:    2716854	FORWARD:          0	MERGED:      44654	TO_CACHE:    2672069

L1D UNIQUE REGIONS ACCESSED: 0
L1D REGIONS CONFLICTS: 0
L1D Cross Page Prefetch Requests: 64635
L1D Same Page Prefetch Requests: 3318122
L1D ROI Sum of L1D PQ occupancy: 35040907
L1D PREFETCHES PUSHED FROM L2C: 0
L1I TOTAL     ACCESS:   39034898  HIT:   29566548  MISS:    9468350  HIT %:    75.7439  MISS %:    24.2561   MPKI: 47.3417
L1I LOAD      ACCESS:   39034898  HIT:   29566548  MISS:    9468350  HIT %:    75.7439  MISS %:    24.2561   MPKI: 47.3417
L1I PREFETCH  REQUESTED:          0  ISSUED:          0  USEFUL:          0  USELESS:          0
L1I USEFUL LOAD PREFETCHES:          0 PREFETCH ISSUED TO LOWER LEVEL:          0  ACCURACY: -nan
L1I TIMELY PREFETCHES:          0 LATE PREFETCHES: 0 DROPPED PREFETCHES: 0
L1I PREFETCHES SAME FILL-ORIGIN LEVEL: 0 DIFFERENT FILL-ORIGIN LEVEL: 0
L1I AVERAGE MISS LATENCY: 17.5961 cycles
L1I RQ	ACCESS:   58066613	FORWARD:          0	MERGED:   17630190	TO_CACHE:   40436423

BTB TOTAL     ACCESS:   30427148  HIT:   19331295  MISS:   11095853  HIT %:     63.533  MISS %:     36.467   MPKI: 55.4793
BTB BRANCH_DIRECT_JUMP	ACCESS:    2146751  HIT:    1371370  MISS:     775381
BTB BRANCH_INDIRECT	ACCESS:   11246234  HIT:    7076259  MISS:    4169975
BTB BRANCH_CONDITIONAL	ACCESS:    9077308  HIT:    7961255  MISS:    1116053
BTB BRANCH_DIRECT_CALL	ACCESS:    3361644  HIT:    1552306  MISS:    1809338
BTB BRANCH_INDIRECT_CALL	ACCESS:     616815  HIT:     250442  MISS:     366373
BTB BRANCH_RETURN	ACCESS:    3978396  HIT:    1119663  MISS:    2858733
BTB BRANCH_OTHER ACCESS:          0  HIT:          0  MISS:          0

L2C TOTAL     ACCESS:   16932764  HIT:   14737648  MISS:    2195116  HIT %:    87.0363  MISS %:    12.9637   MPKI: 10.9756
L2C LOAD      ACCESS:   11882670  HIT:   10463847  MISS:    1418823  HIT %:    88.0597  MISS %:    11.9403   MPKI: 7.09411
L2C DATA LOAD MPKI: 1.72953
L2C INSTRUCTION LOAD MPKI: 5.36458
L2C RFO       ACCESS:    1080589  HIT:     838278  MISS:     242311  HIT %:     77.576  MISS %:     22.424   MPKI: 1.21155
L2C PREFETCH  ACCESS:    2001714  HIT:    1524205  MISS:     477509  HIT %:     76.145  MISS %:     23.855   MPKI: 2.38754
AGUS PREFETCH L1 MISS: 0
L2C DATA PREFETCH MPKI: 2.38754
L2C INSTRUCTION PREFETCH MPKI: 0
L2C WRITEBACK ACCESS:    1943826  HIT:    1900499  MISS:      43327  HIT %:     97.771  MISS %:    2.22895   MPKI: 0.216635
L2C LOAD TRANSLATION ACCESS:      11647  HIT:       2846  MISS:       8801  HIT %:    24.4355  MISS %:    75.5645   MPKI: 0.044005
L2C TRANSLATION FROM L1D PREFETCHER ACCESS:      12318  HIT:       7973  MISS:       4345  HIT %:    64.7264  MISS %:    35.2736   MPKI: 0.021725
L2C PREFETCH  REQUESTED:          0  ISSUED:          0  USEFUL:      28816  USELESS:     452989
L2C USEFUL LOAD PREFETCHES:      28816 PREFETCH ISSUED TO LOWER LEVEL:     477509  ACCURACY: 6.03465
L2C TIMELY PREFETCHES:      28816 LATE PREFETCHES: 0 DROPPED PREFETCHES: 0
L2C PREFETCHES SAME FILL-ORIGIN LEVEL: 0 DIFFERENT FILL-ORIGIN LEVEL: 0
L2C AVERAGE MISS LATENCY: 41.4934 cycles
L2C RQ	ACCESS:   12987318	FORWARD:          0	MERGED:          0	TO_CACHE:   12987224
L2C WQ	ACCESS:    1943826	FORWARD:        228	MERGED:          0	TO_CACHE:    1943826
L2C PQ	ACCESS:    2001848	FORWARD:          0	MERGED:          0	TO_CACHE:    2001714

L2C Instructions Evicting Data 498460
L2C Translations Evicting Data 8073
L2C Data Evicting Data 580884
L2C Instructions Evicting Instructions 569435
L2C Translations Evicting Instructions 4933
L2C Data Evicting Instructions 477008
L2C Instructions Evicting Translations 5021
L2C Translations Evicting Translations 140
L2C Data Evicting Translations 7835
L2C Dense regions hint from L2: 0
PSCL5 TOTAL     ACCESS:      18394  HIT:      18394  MISS:          0  HIT %:        100  MISS %:          0   MPKI: 0
PSCL5 LOAD TRANSLATION ACCESS:      10502  HIT:      10502  MISS:          0  HIT %:        100  MISS %:          0   MPKI: 0
PSCL5 TRANSLATION FROM L1D PREFETCHER ACCESS:       7892  HIT:       7892  MISS:          0  HIT %:        100  MISS %:          0   MPKI: 0
PSCL5 PREFETCH  REQUESTED:          0  ISSUED:          0  USEFUL:          0  USELESS:          0
PSCL5 USEFUL LOAD PREFETCHES:          0 PREFETCH ISSUED TO LOWER LEVEL:          0  ACCURACY: -nan
PSCL5 TIMELY PREFETCHES:          0 LATE PREFETCHES: 0 DROPPED PREFETCHES: 0
PSCL5 PREFETCHES SAME FILL-ORIGIN LEVEL: 0 DIFFERENT FILL-ORIGIN LEVEL: 0

PSCL4 TOTAL     ACCESS:      15234  HIT:      15173  MISS:         61  HIT %:    99.5996  MISS %:    0.40042   MPKI: 0.000305
PSCL4 LOAD TRANSLATION ACCESS:       9632  HIT:       9571  MISS:         61  HIT %:    99.3667  MISS %:   0.633306   MPKI: 0.000305
PSCL4 TRANSLATION FROM L1D PREFETCHER ACCESS:       5602  HIT:       5602  MISS:          0  HIT %:        100  MISS %:          0   MPKI: 0
PSCL4 PREFETCH  REQUESTED:          0  ISSUED:          0  USEFUL:          0  USELESS:          0
PSCL4 USEFUL LOAD PREFETCHES:          0 PREFETCH ISSUED TO LOWER LEVEL:          0  ACCURACY: -nan
PSCL4 TIMELY PREFETCHES:          0 LATE PREFETCHES: 0 DROPPED PREFETCHES: 0
PSCL4 PREFETCHES SAME FILL-ORIGIN LEVEL: 0 DIFFERENT FILL-ORIGIN LEVEL: 0

PSCL3 TOTAL     ACCESS:      18065  HIT:      18004  MISS:         61  HIT %:    99.6623  MISS %:    0.33767   MPKI: 0.000305
PSCL3 LOAD TRANSLATION ACCESS:      10415  HIT:      10354  MISS:         61  HIT %:    99.4143  MISS %:   0.585694   MPKI: 0.000305
PSCL3 TRANSLATION FROM L1D PREFETCHER ACCESS:       7650  HIT:       7650  MISS:          0  HIT %:        100  MISS %:          0   MPKI: 0
PSCL3 PREFETCH  REQUESTED:          0  ISSUED:          0  USEFUL:          0  USELESS:          0
PSCL3 USEFUL LOAD PREFETCHES:          0 PREFETCH ISSUED TO LOWER LEVEL:          0  ACCURACY: -nan
PSCL3 TIMELY PREFETCHES:          0 LATE PREFETCHES: 0 DROPPED PREFETCHES: 0
PSCL3 PREFETCHES SAME FILL-ORIGIN LEVEL: 0 DIFFERENT FILL-ORIGIN LEVEL: 0

PSCL2 TOTAL     ACCESS:      14340  HIT:      13270  MISS:       1070  HIT %:    92.5384  MISS %:    7.46165   MPKI: 0.00535
PSCL2 LOAD TRANSLATION ACCESS:      10520  HIT:       9450  MISS:       1070  HIT %:    89.8289  MISS %:    10.1711   MPKI: 0.00535
PSCL2 TRANSLATION FROM L1D PREFETCHER ACCESS:       3820  HIT:       3820  MISS:          0  HIT %:        100  MISS %:          0   MPKI: 0
PSCL2 PREFETCH  REQUESTED:          0  ISSUED:          0  USEFUL:          0  USELESS:          0
PSCL2 USEFUL LOAD PREFETCHES:          0 PREFETCH ISSUED TO LOWER LEVEL:          0  ACCURACY: -nan
PSCL2 TIMELY PREFETCHES:          0 LATE PREFETCHES: 0 DROPPED PREFETCHES: 0
PSCL2 PREFETCHES SAME FILL-ORIGIN LEVEL: 0 DIFFERENT FILL-ORIGIN LEVEL: 0

LLC TOTAL     ACCESS:    2496472  HIT:    2338282  MISS:     158190  HIT %:    93.6635  MISS %:    6.33654   MPKI: 0.79095
LLC LOAD      ACCESS:    1418823  HIT:    1382855  MISS:      35968  HIT %:    97.4649  MISS %:    2.53506   MPKI: 0.17984
LLC RFO       ACCESS:     242310  HIT:     165424  MISS:      76886  HIT %:    68.2696  MISS %:    31.7304   MPKI: 0.38443
LLC PREFETCH  ACCESS:     477509  HIT:     434619  MISS:      42890  HIT %:     91.018  MISS %:    8.98203   MPKI: 0.21445
AGUS PREFETCH L1 MISS: 0
LLC WRITEBACK ACCESS:     344684  HIT:     343406  MISS:       1278  HIT %:    99.6292  MISS %:   0.370774   MPKI: 0.00639
LLC LOAD TRANSLATION ACCESS:       8801  HIT:       7707  MISS:       1094  HIT %:    87.5696  MISS %:    12.4304   MPKI: 0.00547
LLC TRANSLATION FROM L1D PREFETCHER ACCESS:       4345  HIT:       4271  MISS:         74  HIT %:    98.2969  MISS %:    1.70311   MPKI: 0.00037
LLC PREFETCH  REQUESTED:          0  ISSUED:          0  USEFUL:       3734  USELESS:      39538
LLC USEFUL LOAD PREFETCHES:       3734 PREFETCH ISSUED TO LOWER LEVEL:      42890  ACCURACY: 8.70599
LLC TIMELY PREFETCHES:       3734 LATE PREFETCHES: 0 DROPPED PREFETCHES: 0
LLC PREFETCHES SAME FILL-ORIGIN LEVEL: 0 DIFFERENT FILL-ORIGIN LEVEL: 0
LLC AVERAGE MISS LATENCY: 167.4 cycles
LLC RQ	ACCESS:    1674280	FORWARD:          0	MERGED:          0	TO_CACHE:    1674279
LLC WQ	ACCESS:     344684	FORWARD:          1	MERGED:          0	TO_CACHE:     344684
LLC PQ	ACCESS:     477509	FORWARD:          0	MERGED:          0	TO_CACHE:     477509

LLC Dense regions hint to LLC: 0

RAW hits: 1419787
Loads Generated: 47903481
Loads sent to L1D: 46483694
Stores Generated: 25954684
Stores sent to L1D: 25954686
Major fault: 0 Minor fault: 2897
Allocated PAGES: 2897
CPU 0 L1d next line prefetcher final stats

-63,393
-62,472
-61,420
-60,439
-59,441
-58,429
-57,449
-56,489
-55,504
-54,498
-53,523
-52,470
-51,466
-50,533
-49,542
-48,457
-47,475
-46,457
-45,466
-44,529
-43,489
-42,618
-41,570
-40,585
-39,543
-38,574
-37,547
-36,713
-35,612
-34,608
-33,579
-32,703
-31,554
-30,605
-29,632
-28,638
-27,694
-26,682
-25,737
-24,762
-23,764
-22,751
-21,861
-20,790
-19,788
-18,815
-17,878
-16,973
-15,948
-14,1163
-13,1134
-12,1225
-11,1150
-10,1273
-9,1429
-8,1520
-7,1503
-6,1844
-5,2040
-4,2154
-3,2511
-2,3195
-1,4538
0,4947
1,6426
2,5770
3,5453
4,5176
5,4748
6,4998
7,4422
8,4409
9,4204
10,3846
11,3643
12,3815
13,3372
14,3269
15,3320
16,3087
17,2931
18,3001
19,2628
20,2635
21,2689
22,2410
23,2508
24,2802
25,2529
26,2421
27,2452
28,2249
29,2330
30,2545
31,2332
32,2343
33,2401
34,2308
35,2186
36,2411
37,2204
38,2182
39,2308
40,2257
41,2146
42,2462
43,2114
44,2054
45,2205
46,1891
47,1899
48,2199
49,2004
50,1915
51,2018
52,1960
53,1928
54,2050
55,1956
56,1930
57,2025
58,1834
59,1765
60,1998
61,1812
62,1793
63,1891

DRAM Statistics
 CHANNEL 0
 RQ ROW_BUFFER_HIT:      57306  ROW_BUFFER_MISS:      99579
 DBUS_CONGESTED:         66
 WQ ROW_BUFFER_HIT:       8539  ROW_BUFFER_MISS:      77116  FULL:          0

 AVG_CONGESTED_CYCLE: 5
 All warmup complete: 2
Channel 0 Bank busy for read cycles: 0
Channel 0 Bank busy for write cycles: 0
Channel 0
Rank 0
0banks busy for read cycles: 586447414
0banks busy for write cycles: 19058
1banks busy for read cycles: 3780289
1banks busy for write cycles: 2254555
2banks busy for read cycles: 1533172
2banks busy for write cycles: 810534
3banks busy for read cycles: 404180
3banks busy for write cycles: 364852
4banks busy for read cycles: 282806
4banks busy for write cycles: 248058
5banks busy for read cycles: 220760
5banks busy for write cycles: 204535
6banks busy for read cycles: 222756
6banks busy for write cycles: 191404
7banks busy for read cycles: 254782
7banks busy for write cycles: 228209
8banks busy for read cycles: 560510
8banks busy for write cycles: 591076

CPU 0 Branch Prediction Accuracy: 99.7935% MPKI: 0.36428 Average ROB Occupancy at Mispredict: 45.1513
Branch types
NOT_BRANCH: 164718812 82.3594%
BRANCH_DIRECT_JUMP: 2146751 1.07338%
BRANCH_INDIRECT: 11246234 5.62312%
BRANCH_CONDITIONAL: 13931172 6.96559%
BRANCH_DIRECT_CALL: 3361644 1.68082%
BRANCH_INDIRECT_CALL: 616815 0.308407%
BRANCH_RETURN: 3978396 1.9892%
BRANCH_OTHER: 0 0%

DRAM PAGES: 1048576
Allocated PAGES: 2897
