
*** ChampSim Multicore Out-of-Order Simulator ***

Warmup Instructions: 50000000
Simulation Instructions: 200000000
Number of CPUs: 1
LLC sets: 2048
LLC ways: 16
Off-chip DRAM Size: 4096 MB Channels: 1 Width: 64-bit Data Rate: 6400 MT/s
CPU 0 runs traces/spec2k17/server_027.champsimtrace.xz
.xz
BTB has LRU replacement policy
ITLB has LRU replacement policy
DTLB has LRU replacement policy
STLB has LRU replacement policy
L1I has LRU replacement policy
CPU 0 L2C next line prefetcher
L1D has LRU replacement policy
Initialize SRRIP state for L2C
Initialize DRRIP state for LLC
Heartbeat CPU 0 instructions: 10000000 cycles: 2827408 heartbeat IPC: 3.53681 cumulative IPC: 3.53681 (Simulation time: 0 hr 0 min 38 sec) 
Heartbeat CPU 0 instructions: 20000003 cycles: 5652789 heartbeat IPC: 3.53935 cumulative IPC: 3.53808 (Simulation time: 0 hr 1 min 15 sec) 
Heartbeat CPU 0 instructions: 30000001 cycles: 8475815 heartbeat IPC: 3.5423 cumulative IPC: 3.53948 (Simulation time: 0 hr 1 min 51 sec) 
Heartbeat CPU 0 instructions: 40000002 cycles: 11299448 heartbeat IPC: 3.54154 cumulative IPC: 3.54 (Simulation time: 0 hr 2 min 28 sec) 
Heartbeat CPU 0 instructions: 50000002 cycles: 14122577 heartbeat IPC: 3.54217 cumulative IPC: 3.54043 (Simulation time: 0 hr 3 min 3 sec) 

Warmup complete CPU 0 instructions: 50000002 cycles: 14122577 (Simulation time: 0 hr 3 min 3 sec) 

Heartbeat CPU 0 instructions: 60000001 cycles: 46543339 heartbeat IPC: 0.308444 cumulative IPC: 0.308444 (Simulation time: 0 hr 4 min 0 sec) 
Heartbeat CPU 0 instructions: 70000000 cycles: 78784975 heartbeat IPC: 0.310158 cumulative IPC: 0.309299 (Simulation time: 0 hr 4 min 59 sec) 
Heartbeat CPU 0 instructions: 80000001 cycles: 110898040 heartbeat IPC: 0.3114 cumulative IPC: 0.309996 (Simulation time: 0 hr 5 min 57 sec) 
Heartbeat CPU 0 instructions: 90000001 cycles: 143339517 heartbeat IPC: 0.308247 cumulative IPC: 0.309557 (Simulation time: 0 hr 6 min 54 sec) 
Heartbeat CPU 0 instructions: 100000000 cycles: 175523050 heartbeat IPC: 0.310718 cumulative IPC: 0.309788 (Simulation time: 0 hr 7 min 52 sec) 
*** Reached end of trace for Core: 0 Repeating trace: traces/spec2k17/server_027.champsimtrace.xz
Heartbeat CPU 0 instructions: 110000000 cycles: 207619133 heartbeat IPC: 0.311565 cumulative IPC: 0.310083 (Simulation time: 0 hr 8 min 52 sec) 
Heartbeat CPU 0 instructions: 120000001 cycles: 239745231 heartbeat IPC: 0.311273 cumulative IPC: 0.310253 (Simulation time: 0 hr 9 min 49 sec) 
Heartbeat CPU 0 instructions: 130000000 cycles: 272173098 heartbeat IPC: 0.308377 cumulative IPC: 0.310017 (Simulation time: 0 hr 10 min 50 sec) 
Heartbeat CPU 0 instructions: 140000003 cycles: 304408368 heartbeat IPC: 0.310219 cumulative IPC: 0.310039 (Simulation time: 0 hr 11 min 45 sec) 
Heartbeat CPU 0 instructions: 150000001 cycles: 336656721 heartbeat IPC: 0.310093 cumulative IPC: 0.310045 (Simulation time: 0 hr 12 min 42 sec) 
Heartbeat CPU 0 instructions: 160000000 cycles: 368836014 heartbeat IPC: 0.310759 cumulative IPC: 0.310109 (Simulation time: 0 hr 13 min 39 sec) 
Heartbeat CPU 0 instructions: 170000000 cycles: 401146054 heartbeat IPC: 0.309501 cumulative IPC: 0.310059 (Simulation time: 0 hr 14 min 37 sec) 
Heartbeat CPU 0 instructions: 180000000 cycles: 433321782 heartbeat IPC: 0.310793 cumulative IPC: 0.310115 (Simulation time: 0 hr 15 min 36 sec) 
Heartbeat CPU 0 instructions: 190000001 cycles: 465589143 heartbeat IPC: 0.309911 cumulative IPC: 0.3101 (Simulation time: 0 hr 16 min 33 sec) 
Heartbeat CPU 0 instructions: 200000001 cycles: 497971277 heartbeat IPC: 0.308812 cumulative IPC: 0.310014 (Simulation time: 0 hr 17 min 32 sec) 
*** Reached end of trace for Core: 0 Repeating trace: traces/spec2k17/server_027.champsimtrace.xz
Heartbeat CPU 0 instructions: 210000000 cycles: 530062182 heartbeat IPC: 0.311615 cumulative IPC: 0.310114 (Simulation time: 0 hr 18 min 27 sec) 
Heartbeat CPU 0 instructions: 220000000 cycles: 562144545 heartbeat IPC: 0.311698 cumulative IPC: 0.310207 (Simulation time: 0 hr 19 min 22 sec) 
Heartbeat CPU 0 instructions: 230000000 cycles: 594457430 heartbeat IPC: 0.309474 cumulative IPC: 0.310166 (Simulation time: 0 hr 20 min 20 sec) 
Heartbeat CPU 0 instructions: 240000001 cycles: 626489494 heartbeat IPC: 0.312187 cumulative IPC: 0.310272 (Simulation time: 0 hr 21 min 19 sec) 
Heartbeat CPU 0 instructions: 250000000 cycles: 658653267 heartbeat IPC: 0.310909 cumulative IPC: 0.310303 (Simulation time: 0 hr 22 min 17 sec) 
Finished CPU 0 instructions: 200000002 cycles: 644530716 cumulative IPC: 0.310303 (Simulation time: 0 hr 22 min 17 sec) 

ChampSim completed all CPUs

Region of Interest Statistics

CPU 0 cumulative IPC: 0.310303 instructions: 200000002 cycles: 644530716
ITLB TOTAL     ACCESS:   34676584  HIT:   32651639  MISS:    2024945  HIT %:    94.1605  MISS %:    5.83952   MPKI: 10.1247
ITLB LOAD TRANSLATION ACCESS:   34676584  HIT:   32651639  MISS:    2024945  HIT %:    94.1605  MISS %:    5.83952   MPKI: 10.1247
ITLB PREFETCH  REQUESTED:          0  ISSUED:          0  USEFUL:          0  USELESS:          0
ITLB USEFUL LOAD PREFETCHES:          0 PREFETCH ISSUED TO LOWER LEVEL:          0  ACCURACY: -nan
ITLB TIMELY PREFETCHES:          0 LATE PREFETCHES: 0 DROPPED PREFETCHES: 0
ITLB PREFETCHES SAME FILL-ORIGIN LEVEL: 0 DIFFERENT FILL-ORIGIN LEVEL: 0
ITLB AVERAGE MISS LATENCY: 9.03952 cycles
ITLB RQ	ACCESS:   40895960	FORWARD:          0	MERGED:    5735612	TO_CACHE:   35160348

DTLB TOTAL     ACCESS:   46426442  HIT:   44600484  MISS:    1825958  HIT %:     96.067  MISS %:    3.93301   MPKI: 9.12979
DTLB LOAD TRANSLATION ACCESS:   46426442  HIT:   44600484  MISS:    1825958  HIT %:     96.067  MISS %:    3.93301   MPKI: 9.12979
DTLB PREFETCH  REQUESTED:          0  ISSUED:          0  USEFUL:          0  USELESS:          0
DTLB USEFUL LOAD PREFETCHES:          0 PREFETCH ISSUED TO LOWER LEVEL:          0  ACCURACY: -nan
DTLB TIMELY PREFETCHES:          0 LATE PREFETCHES: 0 DROPPED PREFETCHES: 0
DTLB PREFETCHES SAME FILL-ORIGIN LEVEL: 0 DIFFERENT FILL-ORIGIN LEVEL: 0
DTLB AVERAGE MISS LATENCY: 9.23453 cycles
DTLB RQ	ACCESS:   61085981	FORWARD:          0	MERGED:   14592753	TO_CACHE:   46493228

STLB TOTAL     ACCESS:    6418624  HIT:    6410338  MISS:       8286  HIT %:    99.8709  MISS %:   0.129093   MPKI: 0.04143
STLB LOAD TRANSLATION ACCESS:    3850903  HIT:    3842749  MISS:       8154  HIT %:    99.7883  MISS %:   0.211743   MPKI: 0.04077
STLB TRANSLATION FROM L1D PREFETCHER ACCESS:    2567721  HIT:    2567589  MISS:        132  HIT %:    99.9949  MISS %: 0.00514075   MPKI: 0.00066
STLB PREFETCH  REQUESTED:          0  ISSUED:          0  USEFUL:        101  USELESS:         31
STLB USEFUL LOAD PREFETCHES:        101 PREFETCH ISSUED TO LOWER LEVEL:          0  ACCURACY: inf
STLB TIMELY PREFETCHES:        101 LATE PREFETCHES: 109 DROPPED PREFETCHES: 8273
STLB PREFETCHES SAME FILL-ORIGIN LEVEL: 0 DIFFERENT FILL-ORIGIN LEVEL: 0
STLB AVERAGE MISS LATENCY: 59.1388 cycles
STLB RQ	ACCESS:    6621649	FORWARD:          0	MERGED:     194059	TO_CACHE:    6427590

STLB Hit, L1D data hit: 0
STLB Hit, L2C data hit: 0
STLB Hit, LLC data hit: 0
STLB Hit, LLC data miss: 0
STLB STLB hints to L2: 0
L1D TOTAL     ACCESS:   61211960  HIT:   55725512  MISS:    5486448  HIT %:     91.037  MISS %:    8.96303   MPKI: 27.4322
L1D LOAD      ACCESS:   34216140  HIT:   31507854  MISS:    2708286  HIT %:    92.0848  MISS %:    7.91523   MPKI: 13.5414
L1D RFO       ACCESS:   25017915  HIT:   23877500  MISS:    1140415  HIT %:    95.4416  MISS %:    4.55839   MPKI: 5.70207
L1D PREFETCH  ACCESS:    1977905  HIT:     340158  MISS:    1637747  HIT %:    17.1979  MISS %:    82.8021   MPKI: 8.18873
AGUS PREFETCH L1 MISS: 0
L1D PREFETCH  REQUESTED:    5594356  ISSUED:    5594354  USEFUL:     359458  USELESS:    1278441
L1D USEFUL LOAD PREFETCHES:     359458 PREFETCH ISSUED TO LOWER LEVEL:    1738008  ACCURACY: 20.6822
L1D TIMELY PREFETCHES:     359458 LATE PREFETCHES: 99121 DROPPED PREFETCHES: 8930
L1D PREFETCHES SAME FILL-ORIGIN LEVEL: 1738008 DIFFERENT FILL-ORIGIN LEVEL: 0
L1D AVERAGE MISS LATENCY: 6.14657e+06 cycles
L1D RQ	ACCESS:   47482339	FORWARD:          0	MERGED:   12847760	TO_CACHE:   34335792
L1D WQ	ACCESS:   26918036	FORWARD:     299023	MERGED:     167847	TO_CACHE:   26750189
L1D PQ	ACCESS:    2823608	FORWARD:          0	MERGED:      52626	TO_CACHE:    2770746

L1D UNIQUE REGIONS ACCESSED: 0
L1D REGIONS CONFLICTS: 0
L1D Cross Page Prefetch Requests: 54801
L1D Same Page Prefetch Requests: 3456803
L1D ROI Sum of L1D PQ occupancy: 36172446
L1D PREFETCHES PUSHED FROM L2C: 0
L1I TOTAL     ACCESS:   39385521  HIT:   28809049  MISS:   10576472  HIT %:    73.1463  MISS %:    26.8537   MPKI: 52.8824
L1I LOAD      ACCESS:   39385521  HIT:   28809049  MISS:   10576472  HIT %:    73.1463  MISS %:    26.8537   MPKI: 52.8824
L1I PREFETCH  REQUESTED:          0  ISSUED:          0  USEFUL:          0  USELESS:          0
L1I USEFUL LOAD PREFETCHES:          0 PREFETCH ISSUED TO LOWER LEVEL:          0  ACCURACY: -nan
L1I TIMELY PREFETCHES:          0 LATE PREFETCHES: 0 DROPPED PREFETCHES: 0
L1I PREFETCHES SAME FILL-ORIGIN LEVEL: 0 DIFFERENT FILL-ORIGIN LEVEL: 0
L1I AVERAGE MISS LATENCY: 16.9843 cycles
L1I RQ	ACCESS:   57950794	FORWARD:          0	MERGED:   17054834	TO_CACHE:   40895960

BTB TOTAL     ACCESS:   30075439  HIT:   17377785  MISS:   12697654  HIT %:    57.7807  MISS %:    42.2193   MPKI: 63.4883
BTB BRANCH_DIRECT_JUMP	ACCESS:    2026968  HIT:    1138640  MISS:     888328
BTB BRANCH_INDIRECT	ACCESS:   11863620  HIT:    7044030  MISS:    4819590
BTB BRANCH_CONDITIONAL	ACCESS:    7648132  HIT:    6314457  MISS:    1333675
BTB BRANCH_DIRECT_CALL	ACCESS:    3599197  HIT:    1507522  MISS:    2091675
BTB BRANCH_INDIRECT_CALL	ACCESS:     669164  HIT:     263401  MISS:     405763
BTB BRANCH_RETURN	ACCESS:    4268358  HIT:    1109735  MISS:    3158623
BTB BRANCH_OTHER ACCESS:          0  HIT:          0  MISS:          0

L2C TOTAL     ACCESS:   18178918  HIT:   16270969  MISS:    1907949  HIT %:    89.5046  MISS %:    10.4954   MPKI: 9.53974
L2C LOAD      ACCESS:   13185532  HIT:   11883757  MISS:    1301775  HIT %:    90.1272  MISS %:    9.87275   MPKI: 6.50887
L2C DATA LOAD MPKI: 1.48479
L2C INSTRUCTION LOAD MPKI: 5.02408
L2C RFO       ACCESS:    1139264  HIT:     937902  MISS:     201362  HIT %:    82.3253  MISS %:    17.6747   MPKI: 1.00681
L2C PREFETCH  ACCESS:    1737830  HIT:    1382409  MISS:     355421  HIT %:     79.548  MISS %:     20.452   MPKI: 1.7771
AGUS PREFETCH L1 MISS: 0
L2C DATA PREFETCH MPKI: 1.7771
L2C INSTRUCTION PREFETCH MPKI: 0
L2C WRITEBACK ACCESS:    2094767  HIT:    2053922  MISS:      40845  HIT %:    98.0501  MISS %:    1.94986   MPKI: 0.204225
L2C LOAD TRANSLATION ACCESS:       8658  HIT:       2249  MISS:       6409  HIT %:     25.976  MISS %:     74.024   MPKI: 0.032045
L2C TRANSLATION FROM L1D PREFETCHER ACCESS:      12867  HIT:      10730  MISS:       2137  HIT %:    83.3916  MISS %:    16.6084   MPKI: 0.010685
L2C PREFETCH  REQUESTED:          0  ISSUED:          0  USEFUL:      18633  USELESS:     339198
L2C USEFUL LOAD PREFETCHES:      18633 PREFETCH ISSUED TO LOWER LEVEL:     355421  ACCURACY: 5.24252
L2C TIMELY PREFETCHES:      18633 LATE PREFETCHES: 0 DROPPED PREFETCHES: 0
L2C PREFETCHES SAME FILL-ORIGIN LEVEL: 0 DIFFERENT FILL-ORIGIN LEVEL: 0
L2C AVERAGE MISS LATENCY: 37.7769 cycles
L2C RQ	ACCESS:   14346437	FORWARD:          0	MERGED:          0	TO_CACHE:   14346321
L2C WQ	ACCESS:    2094767	FORWARD:        294	MERGED:          0	TO_CACHE:    2094767
L2C PQ	ACCESS:    1738008	FORWARD:          0	MERGED:          0	TO_CACHE:    1737830

L2C Instructions Evicting Data 425411
L2C Translations Evicting Data 5541
L2C Data Evicting Data 445122
L2C Instructions Evicting Instructions 576461
L2C Translations Evicting Instructions 2913
L2C Data Evicting Instructions 403180
L2C Instructions Evicting Translations 2944
L2C Translations Evicting Translations 92
L2C Data Evicting Translations 5440
L2C Dense regions hint from L2: 0
PSCL5 TOTAL     ACCESS:      16566  HIT:      16566  MISS:          0  HIT %:        100  MISS %:          0   MPKI: 0
PSCL5 LOAD TRANSLATION ACCESS:       8052  HIT:       8052  MISS:          0  HIT %:        100  MISS %:          0   MPKI: 0
PSCL5 TRANSLATION FROM L1D PREFETCHER ACCESS:       8514  HIT:       8514  MISS:          0  HIT %:        100  MISS %:          0   MPKI: 0
PSCL5 PREFETCH  REQUESTED:          0  ISSUED:          0  USEFUL:          0  USELESS:          0
PSCL5 USEFUL LOAD PREFETCHES:          0 PREFETCH ISSUED TO LOWER LEVEL:          0  ACCURACY: -nan
PSCL5 TIMELY PREFETCHES:          0 LATE PREFETCHES: 0 DROPPED PREFETCHES: 0
PSCL5 PREFETCHES SAME FILL-ORIGIN LEVEL: 0 DIFFERENT FILL-ORIGIN LEVEL: 0

PSCL4 TOTAL     ACCESS:      13083  HIT:      13017  MISS:         66  HIT %:    99.4955  MISS %:   0.504471   MPKI: 0.00033
PSCL4 LOAD TRANSLATION ACCESS:       7060  HIT:       6994  MISS:         66  HIT %:    99.0652  MISS %:   0.934844   MPKI: 0.00033
PSCL4 TRANSLATION FROM L1D PREFETCHER ACCESS:       6023  HIT:       6023  MISS:          0  HIT %:        100  MISS %:          0   MPKI: 0
PSCL4 PREFETCH  REQUESTED:          0  ISSUED:          0  USEFUL:          0  USELESS:          0
PSCL4 USEFUL LOAD PREFETCHES:          0 PREFETCH ISSUED TO LOWER LEVEL:          0  ACCURACY: -nan
PSCL4 TIMELY PREFETCHES:          0 LATE PREFETCHES: 0 DROPPED PREFETCHES: 0
PSCL4 PREFETCHES SAME FILL-ORIGIN LEVEL: 0 DIFFERENT FILL-ORIGIN LEVEL: 0

PSCL3 TOTAL     ACCESS:      15176  HIT:      15110  MISS:         66  HIT %:    99.5651  MISS %:   0.434897   MPKI: 0.00033
PSCL3 LOAD TRANSLATION ACCESS:       7255  HIT:       7189  MISS:         66  HIT %:    99.0903  MISS %:   0.909717   MPKI: 0.00033
PSCL3 TRANSLATION FROM L1D PREFETCHER ACCESS:       7921  HIT:       7921  MISS:          0  HIT %:        100  MISS %:          0   MPKI: 0
PSCL3 PREFETCH  REQUESTED:          0  ISSUED:          0  USEFUL:          0  USELESS:          0
PSCL3 USEFUL LOAD PREFETCHES:          0 PREFETCH ISSUED TO LOWER LEVEL:          0  ACCURACY: -nan
PSCL3 TIMELY PREFETCHES:          0 LATE PREFETCHES: 0 DROPPED PREFETCHES: 0
PSCL3 PREFETCHES SAME FILL-ORIGIN LEVEL: 0 DIFFERENT FILL-ORIGIN LEVEL: 0

PSCL2 TOTAL     ACCESS:      12817  HIT:      12337  MISS:        480  HIT %:     96.255  MISS %:    3.74503   MPKI: 0.0024
PSCL2 LOAD TRANSLATION ACCESS:       8054  HIT:       7574  MISS:        480  HIT %:    94.0402  MISS %:    5.95977   MPKI: 0.0024
PSCL2 TRANSLATION FROM L1D PREFETCHER ACCESS:       4763  HIT:       4763  MISS:          0  HIT %:        100  MISS %:          0   MPKI: 0
PSCL2 PREFETCH  REQUESTED:          0  ISSUED:          0  USEFUL:          0  USELESS:          0
PSCL2 USEFUL LOAD PREFETCHES:          0 PREFETCH ISSUED TO LOWER LEVEL:          0  ACCURACY: -nan
PSCL2 TIMELY PREFETCHES:          0 LATE PREFETCHES: 0 DROPPED PREFETCHES: 0
PSCL2 PREFETCHES SAME FILL-ORIGIN LEVEL: 0 DIFFERENT FILL-ORIGIN LEVEL: 0

LLC TOTAL     ACCESS:    2152069  HIT:    2051969  MISS:     100100  HIT %:    95.3487  MISS %:    4.65134   MPKI: 0.5005
LLC LOAD      ACCESS:    1301775  HIT:    1278522  MISS:      23253  HIT %:    98.2137  MISS %:    1.78625   MPKI: 0.116265
LLC RFO       ACCESS:     201362  HIT:     150025  MISS:      51337  HIT %:    74.5051  MISS %:    25.4949   MPKI: 0.256685
LLC PREFETCH  ACCESS:     355421  HIT:     331306  MISS:      24115  HIT %:    93.2151  MISS %:    6.78491   MPKI: 0.120575
AGUS PREFETCH L1 MISS: 0
LLC WRITEBACK ACCESS:     284965  HIT:     284059  MISS:        906  HIT %:    99.6821  MISS %:   0.317934   MPKI: 0.00453
LLC LOAD TRANSLATION ACCESS:       6409  HIT:       5955  MISS:        454  HIT %:    92.9162  MISS %:    7.08379   MPKI: 0.00227
LLC TRANSLATION FROM L1D PREFETCHER ACCESS:       2137  HIT:       2102  MISS:         35  HIT %:    98.3622  MISS %:    1.63781   MPKI: 0.000175
LLC PREFETCH  REQUESTED:          0  ISSUED:          0  USEFUL:       3470  USELESS:      20503
LLC USEFUL LOAD PREFETCHES:       3470 PREFETCH ISSUED TO LOWER LEVEL:      24115  ACCURACY: 14.3894
LLC TIMELY PREFETCHES:       3470 LATE PREFETCHES: 0 DROPPED PREFETCHES: 0
LLC PREFETCHES SAME FILL-ORIGIN LEVEL: 0 DIFFERENT FILL-ORIGIN LEVEL: 0
LLC AVERAGE MISS LATENCY: 160.109 cycles
LLC RQ	ACCESS:    1511683	FORWARD:          0	MERGED:          0	TO_CACHE:    1511683
LLC WQ	ACCESS:     284965	FORWARD:          0	MERGED:          0	TO_CACHE:     284965
LLC PQ	ACCESS:     355421	FORWARD:          0	MERGED:          0	TO_CACHE:     355421

LLC Dense regions hint to LLC: 0

RAW hits: 1428467
Loads Generated: 48910806
Loads sent to L1D: 47482339
Stores Generated: 26918028
Stores sent to L1D: 26918036
Major fault: 0 Minor fault: 2582
Allocated PAGES: 2582
CPU 0 L1d next line prefetcher final stats

-63,246
-62,269
-61,261
-60,257
-59,234
-58,236
-57,295
-56,305
-55,238
-54,206
-53,271
-52,219
-51,253
-50,318
-49,197
-48,287
-47,198
-46,265
-45,263
-44,334
-43,264
-42,345
-41,311
-40,378
-39,291
-38,303
-37,268
-36,385
-35,301
-34,345
-33,394
-32,464
-31,329
-30,382
-29,312
-28,341
-27,393
-26,378
-25,422
-24,410
-23,507
-22,482
-21,571
-20,525
-19,668
-18,656
-17,775
-16,810
-15,812
-14,1146
-13,1056
-12,1184
-11,1141
-10,1346
-9,1270
-8,1643
-7,1707
-6,1919
-5,1912
-4,2145
-3,2575
-2,3429
-1,4698
0,5362
1,5723
2,5326
3,4611
4,4296
5,3949
6,3939
7,3468
8,3496
9,3158
10,2843
11,2679
12,2534
13,2178
14,2142
15,1821
16,1846
17,1824
18,1548
19,1360
20,1298
21,1319
22,1165
23,1305
24,1270
25,1282
26,1119
27,1030
28,901
29,844
30,897
31,998
32,1000
33,817
34,783
35,734
36,862
37,841
38,735
39,701
40,874
41,665
42,706
43,600
44,548
45,550
46,500
47,442
48,477
49,383
50,380
51,410
52,389
53,381
54,407
55,401
56,501
57,423
58,403
59,357
60,410
61,376
62,400
63,391

DRAM Statistics
 CHANNEL 0
 RQ ROW_BUFFER_HIT:      37861  ROW_BUFFER_MISS:      61314
 DBUS_CONGESTED:         42
 WQ ROW_BUFFER_HIT:       5006  ROW_BUFFER_MISS:      50366  FULL:          0

 AVG_CONGESTED_CYCLE: 5
 All warmup complete: 2
Channel 0 Bank busy for read cycles: 0
Channel 0 Bank busy for write cycles: 0
Channel 0
Rank 0
0banks busy for read cycles: 636901190
0banks busy for write cycles: 12918
1banks busy for read cycles: 2380378
1banks busy for write cycles: 1488581
2banks busy for read cycles: 842612
2banks busy for write cycles: 463959
3banks busy for read cycles: 294243
3banks busy for write cycles: 212516
4banks busy for read cycles: 207887
4banks busy for write cycles: 151085
5banks busy for read cycles: 158405
5banks busy for write cycles: 136348
6banks busy for read cycles: 152959
6banks busy for write cycles: 138339
7banks busy for read cycles: 162616
7banks busy for write cycles: 159717
8banks busy for read cycles: 313269
8banks busy for write cycles: 353695

CPU 0 Branch Prediction Accuracy: 99.8608% MPKI: 0.244675 Average ROB Occupancy at Mispredict: 30.7848
Branch types
NOT_BRANCH: 164851253 82.4256%
BRANCH_DIRECT_JUMP: 2026968 1.01348%
BRANCH_INDIRECT: 11863620 5.93181%
BRANCH_CONDITIONAL: 12721080 6.36054%
BRANCH_DIRECT_CALL: 3599197 1.7996%
BRANCH_INDIRECT_CALL: 669164 0.334582%
BRANCH_RETURN: 4268358 2.13418%
BRANCH_OTHER: 0 0%

DRAM PAGES: 1048576
Allocated PAGES: 2582
