
*** ChampSim Multicore Out-of-Order Simulator ***

Warmup Instructions: 50000000
Simulation Instructions: 200000000
Number of CPUs: 1
LLC sets: 2048
LLC ways: 16
Off-chip DRAM Size: 4096 MB Channels: 1 Width: 64-bit Data Rate: 6400 MT/s
CPU 0 runs traces/spec2k17/server_015.champsimtrace.xz
.xz
BTB has LRU replacement policy
ITLB has LRU replacement policy
DTLB has LRU replacement policy
STLB has LRU replacement policy
L1I has LRU replacement policy
CPU 0 L2C next line prefetcher
L1D has LRU replacement policy
Initialize SRRIP state for L2C
Initialize DRRIP state for LLC
Heartbeat CPU 0 instructions: 10000002 cycles: 2682346 heartbeat IPC: 3.72808 cumulative IPC: 3.72808 (Simulation time: 0 hr 0 min 30 sec) 
Heartbeat CPU 0 instructions: 20000000 cycles: 5402223 heartbeat IPC: 3.67664 cumulative IPC: 3.70218 (Simulation time: 0 hr 0 min 57 sec) 
Heartbeat CPU 0 instructions: 30000001 cycles: 8090569 heartbeat IPC: 3.71976 cumulative IPC: 3.70802 (Simulation time: 0 hr 1 min 25 sec) 
Heartbeat CPU 0 instructions: 40000000 cycles: 10778313 heartbeat IPC: 3.72059 cumulative IPC: 3.71116 (Simulation time: 0 hr 1 min 54 sec) 
Heartbeat CPU 0 instructions: 50000000 cycles: 13465782 heartbeat IPC: 3.72097 cumulative IPC: 3.71312 (Simulation time: 0 hr 2 min 22 sec) 

Warmup complete CPU 0 instructions: 50000004 cycles: 13465783 (Simulation time: 0 hr 2 min 22 sec) 

Heartbeat CPU 0 instructions: 60000002 cycles: 28877125 heartbeat IPC: 0.648873 cumulative IPC: 0.648873 (Simulation time: 0 hr 3 min 13 sec) 
Heartbeat CPU 0 instructions: 70000003 cycles: 44248734 heartbeat IPC: 0.65055 cumulative IPC: 0.64971 (Simulation time: 0 hr 4 min 1 sec) 
Heartbeat CPU 0 instructions: 80000001 cycles: 59622961 heartbeat IPC: 0.650439 cumulative IPC: 0.649953 (Simulation time: 0 hr 4 min 51 sec) 
Heartbeat CPU 0 instructions: 90000000 cycles: 74996217 heartbeat IPC: 0.65048 cumulative IPC: 0.650085 (Simulation time: 0 hr 5 min 39 sec) 
Heartbeat CPU 0 instructions: 100000002 cycles: 90371107 heartbeat IPC: 0.650411 cumulative IPC: 0.65015 (Simulation time: 0 hr 6 min 28 sec) 
Heartbeat CPU 0 instructions: 110000000 cycles: 105737873 heartbeat IPC: 0.650755 cumulative IPC: 0.650251 (Simulation time: 0 hr 7 min 19 sec) 
Heartbeat CPU 0 instructions: 120000000 cycles: 121114836 heartbeat IPC: 0.650323 cumulative IPC: 0.650261 (Simulation time: 0 hr 8 min 11 sec) 
Heartbeat CPU 0 instructions: 130000000 cycles: 136496996 heartbeat IPC: 0.650104 cumulative IPC: 0.650241 (Simulation time: 0 hr 8 min 59 sec) 
Heartbeat CPU 0 instructions: 140000003 cycles: 151859915 heartbeat IPC: 0.650918 cumulative IPC: 0.650317 (Simulation time: 0 hr 9 min 46 sec) 
Heartbeat CPU 0 instructions: 150000002 cycles: 167263767 heartbeat IPC: 0.649188 cumulative IPC: 0.650204 (Simulation time: 0 hr 10 min 36 sec) 
Heartbeat CPU 0 instructions: 160000000 cycles: 182652873 heartbeat IPC: 0.64981 cumulative IPC: 0.650168 (Simulation time: 0 hr 11 min 25 sec) 
Heartbeat CPU 0 instructions: 170000000 cycles: 198039788 heartbeat IPC: 0.649903 cumulative IPC: 0.650146 (Simulation time: 0 hr 12 min 14 sec) 
Heartbeat CPU 0 instructions: 180000001 cycles: 213462113 heartbeat IPC: 0.648411 cumulative IPC: 0.650012 (Simulation time: 0 hr 13 min 3 sec) 
Heartbeat CPU 0 instructions: 190000000 cycles: 228856796 heartbeat IPC: 0.649575 cumulative IPC: 0.649981 (Simulation time: 0 hr 13 min 50 sec) 
Heartbeat CPU 0 instructions: 200000000 cycles: 244266154 heartbeat IPC: 0.648956 cumulative IPC: 0.649912 (Simulation time: 0 hr 14 min 41 sec) 
Heartbeat CPU 0 instructions: 210000003 cycles: 259644809 heartbeat IPC: 0.650252 cumulative IPC: 0.649934 (Simulation time: 0 hr 15 min 30 sec) 
Heartbeat CPU 0 instructions: 220000000 cycles: 275053943 heartbeat IPC: 0.648966 cumulative IPC: 0.649876 (Simulation time: 0 hr 16 min 21 sec) 
Heartbeat CPU 0 instructions: 230000000 cycles: 290429630 heartbeat IPC: 0.650377 cumulative IPC: 0.649904 (Simulation time: 0 hr 17 min 7 sec) 
Heartbeat CPU 0 instructions: 240000002 cycles: 305800286 heartbeat IPC: 0.65059 cumulative IPC: 0.64994 (Simulation time: 0 hr 17 min 56 sec) 
Heartbeat CPU 0 instructions: 250000000 cycles: 321195282 heartbeat IPC: 0.649562 cumulative IPC: 0.649921 (Simulation time: 0 hr 18 min 45 sec) 
Finished CPU 0 instructions: 200000000 cycles: 307729509 cumulative IPC: 0.649921 (Simulation time: 0 hr 18 min 45 sec) 

ChampSim completed all CPUs

Region of Interest Statistics

CPU 0 cumulative IPC: 0.649921 instructions: 200000000 cycles: 307729509
ITLB TOTAL     ACCESS:   33952702  HIT:   32266548  MISS:    1686154  HIT %:    95.0338  MISS %:    4.96619   MPKI: 8.43077
ITLB LOAD TRANSLATION ACCESS:   33952702  HIT:   32266548  MISS:    1686154  HIT %:    95.0338  MISS %:    4.96619   MPKI: 8.43077
ITLB PREFETCH  REQUESTED:          0  ISSUED:          0  USEFUL:          0  USELESS:          0
ITLB USEFUL LOAD PREFETCHES:          0 PREFETCH ISSUED TO LOWER LEVEL:          0  ACCURACY: -nan
ITLB TIMELY PREFETCHES:          0 LATE PREFETCHES: 0 DROPPED PREFETCHES: 0
ITLB PREFETCHES SAME FILL-ORIGIN LEVEL: 0 DIFFERENT FILL-ORIGIN LEVEL: 0
ITLB AVERAGE MISS LATENCY: 9.00257 cycles
ITLB RQ	ACCESS:   39517848	FORWARD:          0	MERGED:    4991173	TO_CACHE:   34526675

DTLB TOTAL     ACCESS:   39497393  HIT:   38753653  MISS:     743740  HIT %:     98.117  MISS %:    1.88301   MPKI: 3.7187
DTLB LOAD TRANSLATION ACCESS:   39497393  HIT:   38753653  MISS:     743740  HIT %:     98.117  MISS %:    1.88301   MPKI: 3.7187
DTLB PREFETCH  REQUESTED:          0  ISSUED:          0  USEFUL:          0  USELESS:          0
DTLB USEFUL LOAD PREFETCHES:          0 PREFETCH ISSUED TO LOWER LEVEL:          0  ACCURACY: -nan
DTLB TIMELY PREFETCHES:          0 LATE PREFETCHES: 0 DROPPED PREFETCHES: 0
DTLB PREFETCHES SAME FILL-ORIGIN LEVEL: 0 DIFFERENT FILL-ORIGIN LEVEL: 0
DTLB AVERAGE MISS LATENCY: 9.00087 cycles
DTLB RQ	ACCESS:   59260828	FORWARD:          0	MERGED:   19684736	TO_CACHE:   39576092

STLB TOTAL     ACCESS:    2430346  HIT:    2430342  MISS:          4  HIT %:    99.9998  MISS %: 0.000164586   MPKI: 2e-05
STLB LOAD TRANSLATION ACCESS:    2429894  HIT:    2429890  MISS:          4  HIT %:    99.9998  MISS %: 0.000164616   MPKI: 2e-05
STLB TRANSLATION FROM L1D PREFETCHER ACCESS:        452  HIT:        452  MISS:          0  HIT %:        100  MISS %:          0   MPKI: 0
STLB PREFETCH  REQUESTED:          0  ISSUED:          0  USEFUL:          1  USELESS:          0
STLB USEFUL LOAD PREFETCHES:          1 PREFETCH ISSUED TO LOWER LEVEL:          0  ACCURACY: inf
STLB TIMELY PREFETCHES:          1 LATE PREFETCHES: 0 DROPPED PREFETCHES: 49
STLB PREFETCHES SAME FILL-ORIGIN LEVEL: 0 DIFFERENT FILL-ORIGIN LEVEL: 0
STLB AVERAGE MISS LATENCY: 69 cycles
STLB RQ	ACCESS:    2430414	FORWARD:          0	MERGED:         17	TO_CACHE:    2430397

STLB Hit, L1D data hit: 0
STLB Hit, L2C data hit: 0
STLB Hit, LLC data hit: 0
STLB Hit, LLC data miss: 0
STLB STLB hints to L2: 0
L1D TOTAL     ACCESS:   59261075  HIT:   59260143  MISS:        932  HIT %:    99.9984  MISS %:  0.0015727   MPKI: 0.00466
L1D LOAD      ACCESS:   26985437  HIT:   26984936  MISS:        501  HIT %:    99.9981  MISS %: 0.00185656   MPKI: 0.002505
L1D RFO       ACCESS:   32275182  HIT:   32275074  MISS:        108  HIT %:    99.9997  MISS %: 0.000334622   MPKI: 0.00054
L1D PREFETCH  ACCESS:        456  HIT:        133  MISS:        323  HIT %:    29.1667  MISS %:    70.8333   MPKI: 0.001615
AGUS PREFETCH L1 MISS: 0
L1D PREFETCH  REQUESTED:       1048  ISSUED:       1048  USEFUL:         53  USELESS:        311
L1D USEFUL LOAD PREFETCHES:         53 PREFETCH ISSUED TO LOWER LEVEL:        323  ACCURACY: 16.4087
L1D TIMELY PREFETCHES:         53 LATE PREFETCHES: 0 DROPPED PREFETCHES: 56
L1D PREFETCHES SAME FILL-ORIGIN LEVEL: 323 DIFFERENT FILL-ORIGIN LEVEL: 0
L1D AVERAGE MISS LATENCY: 38.3176 cycles
L1D RQ	ACCESS:   44833461	FORWARD:          0	MERGED:   17496096	TO_CACHE:   26985464
L1D WQ	ACCESS:   32718443	FORWARD:     351901	MERGED:     443079	TO_CACHE:   32275364
L1D PQ	ACCESS:        528	FORWARD:          0	MERGED:          8	TO_CACHE:        520

L1D UNIQUE REGIONS ACCESSED: 0
L1D REGIONS CONFLICTS: 0
L1D Cross Page Prefetch Requests: 2493
L1D Same Page Prefetch Requests: 21864
L1D ROI Sum of L1D PQ occupancy: 7920
L1D PREFETCHES PUSHED FROM L2C: 0
L1I TOTAL     ACCESS:   38077593  HIT:   32088057  MISS:    5989536  HIT %:    84.2702  MISS %:    15.7298   MPKI: 29.9477
L1I LOAD      ACCESS:   38077593  HIT:   32088057  MISS:    5989536  HIT %:    84.2702  MISS %:    15.7298   MPKI: 29.9477
L1I PREFETCH  REQUESTED:          0  ISSUED:          0  USEFUL:          0  USELESS:          0
L1I USEFUL LOAD PREFETCHES:          0 PREFETCH ISSUED TO LOWER LEVEL:          0  ACCURACY: -nan
L1I TIMELY PREFETCHES:          0 LATE PREFETCHES: 0 DROPPED PREFETCHES: 0
L1I PREFETCHES SAME FILL-ORIGIN LEVEL: 0 DIFFERENT FILL-ORIGIN LEVEL: 0
L1I AVERAGE MISS LATENCY: 14.0414 cycles
L1I RQ	ACCESS:   60196144	FORWARD:          0	MERGED:   20678296	TO_CACHE:   39517848

BTB TOTAL     ACCESS:   27608398  HIT:   25159622  MISS:    2448776  HIT %:    91.1303  MISS %:    8.86968   MPKI: 12.2439
BTB BRANCH_DIRECT_JUMP	ACCESS:    1623386  HIT:    1623233  MISS:        153
BTB BRANCH_INDIRECT	ACCESS:   12401141  HIT:   11630273  MISS:     770868
BTB BRANCH_CONDITIONAL	ACCESS:    3940144  HIT:    3939912  MISS:        232
BTB BRANCH_DIRECT_CALL	ACCESS:    4362301  HIT:    4361953  MISS:        348
BTB BRANCH_INDIRECT_CALL	ACCESS:     459562  HIT:     405839  MISS:      53723
BTB BRANCH_RETURN	ACCESS:    4821864  HIT:    3198412  MISS:    1623452
BTB BRANCH_OTHER ACCESS:          0  HIT:          0  MISS:          0

L2C TOTAL     ACCESS:    5990838  HIT:    5990452  MISS:        386  HIT %:    99.9936  MISS %: 0.00644317   MPKI: 0.00193
L2C LOAD      ACCESS:    5990037  HIT:    5989789  MISS:        248  HIT %:    99.9959  MISS %: 0.00414021   MPKI: 0.00124
L2C DATA LOAD MPKI: 0.00031
L2C INSTRUCTION LOAD MPKI: 0.00093
L2C RFO       ACCESS:        108  HIT:        101  MISS:          7  HIT %:    93.5185  MISS %:    6.48148   MPKI: 3.5e-05
L2C PREFETCH  ACCESS:        323  HIT:        204  MISS:        119  HIT %:    63.1579  MISS %:    36.8421   MPKI: 0.000595
AGUS PREFETCH L1 MISS: 0
L2C DATA PREFETCH MPKI: 0.000595
L2C INSTRUCTION PREFETCH MPKI: 0
L2C WRITEBACK ACCESS:        312  HIT:        303  MISS:          9  HIT %:    97.1154  MISS %:    2.88462   MPKI: 4.5e-05
L2C LOAD TRANSLATION ACCESS:          4  HIT:          3  MISS:          1  HIT %:         75  MISS %:         25   MPKI: 5e-06
L2C TRANSLATION FROM L1D PREFETCHER ACCESS:         54  HIT:         52  MISS:          2  HIT %:    96.2963  MISS %:     3.7037   MPKI: 1e-05
L2C PREFETCH  REQUESTED:          0  ISSUED:          0  USEFUL:         46  USELESS:         98
L2C USEFUL LOAD PREFETCHES:         46 PREFETCH ISSUED TO LOWER LEVEL:        119  ACCURACY: 38.6555
L2C TIMELY PREFETCHES:         46 LATE PREFETCHES: 0 DROPPED PREFETCHES: 0
L2C PREFETCHES SAME FILL-ORIGIN LEVEL: 0 DIFFERENT FILL-ORIGIN LEVEL: 0
L2C AVERAGE MISS LATENCY: 73.544 cycles
L2C RQ	ACCESS:    5990203	FORWARD:          0	MERGED:          0	TO_CACHE:    5990203
L2C WQ	ACCESS:        312	FORWARD:          0	MERGED:          0	TO_CACHE:        312
L2C PQ	ACCESS:        323	FORWARD:          0	MERGED:          0	TO_CACHE:        323

L2C Instructions Evicting Data 152
L2C Translations Evicting Data 3
L2C Data Evicting Data 161
L2C Instructions Evicting Instructions 26
L2C Translations Evicting Instructions 0
L2C Data Evicting Instructions 19
L2C Instructions Evicting Translations 8
L2C Translations Evicting Translations 0
L2C Data Evicting Translations 8
L2C Dense regions hint from L2: 0
PSCL5 TOTAL     ACCESS:         53  HIT:         53  MISS:          0  HIT %:        100  MISS %:          0   MPKI: 0
PSCL5 LOAD TRANSLATION ACCESS:          4  HIT:          4  MISS:          0  HIT %:        100  MISS %:          0   MPKI: 0
PSCL5 TRANSLATION FROM L1D PREFETCHER ACCESS:         49  HIT:         49  MISS:          0  HIT %:        100  MISS %:          0   MPKI: 0
PSCL5 PREFETCH  REQUESTED:          0  ISSUED:          0  USEFUL:          0  USELESS:          0
PSCL5 USEFUL LOAD PREFETCHES:          0 PREFETCH ISSUED TO LOWER LEVEL:          0  ACCURACY: -nan
PSCL5 TIMELY PREFETCHES:          0 LATE PREFETCHES: 0 DROPPED PREFETCHES: 0
PSCL5 PREFETCHES SAME FILL-ORIGIN LEVEL: 0 DIFFERENT FILL-ORIGIN LEVEL: 0

PSCL4 TOTAL     ACCESS:         53  HIT:         53  MISS:          0  HIT %:        100  MISS %:          0   MPKI: 0
PSCL4 LOAD TRANSLATION ACCESS:          4  HIT:          4  MISS:          0  HIT %:        100  MISS %:          0   MPKI: 0
PSCL4 TRANSLATION FROM L1D PREFETCHER ACCESS:         49  HIT:         49  MISS:          0  HIT %:        100  MISS %:          0   MPKI: 0
PSCL4 PREFETCH  REQUESTED:          0  ISSUED:          0  USEFUL:          0  USELESS:          0
PSCL4 USEFUL LOAD PREFETCHES:          0 PREFETCH ISSUED TO LOWER LEVEL:          0  ACCURACY: -nan
PSCL4 TIMELY PREFETCHES:          0 LATE PREFETCHES: 0 DROPPED PREFETCHES: 0
PSCL4 PREFETCHES SAME FILL-ORIGIN LEVEL: 0 DIFFERENT FILL-ORIGIN LEVEL: 0

PSCL3 TOTAL     ACCESS:         53  HIT:         53  MISS:          0  HIT %:        100  MISS %:          0   MPKI: 0
PSCL3 LOAD TRANSLATION ACCESS:          4  HIT:          4  MISS:          0  HIT %:        100  MISS %:          0   MPKI: 0
PSCL3 TRANSLATION FROM L1D PREFETCHER ACCESS:         49  HIT:         49  MISS:          0  HIT %:        100  MISS %:          0   MPKI: 0
PSCL3 PREFETCH  REQUESTED:          0  ISSUED:          0  USEFUL:          0  USELESS:          0
PSCL3 USEFUL LOAD PREFETCHES:          0 PREFETCH ISSUED TO LOWER LEVEL:          0  ACCURACY: -nan
PSCL3 TIMELY PREFETCHES:          0 LATE PREFETCHES: 0 DROPPED PREFETCHES: 0
PSCL3 PREFETCHES SAME FILL-ORIGIN LEVEL: 0 DIFFERENT FILL-ORIGIN LEVEL: 0

PSCL2 TOTAL     ACCESS:         48  HIT:         48  MISS:          0  HIT %:        100  MISS %:          0   MPKI: 0
PSCL2 LOAD TRANSLATION ACCESS:          4  HIT:          4  MISS:          0  HIT %:        100  MISS %:          0   MPKI: 0
PSCL2 TRANSLATION FROM L1D PREFETCHER ACCESS:         44  HIT:         44  MISS:          0  HIT %:        100  MISS %:          0   MPKI: 0
PSCL2 PREFETCH  REQUESTED:          0  ISSUED:          0  USEFUL:          0  USELESS:          0
PSCL2 USEFUL LOAD PREFETCHES:          0 PREFETCH ISSUED TO LOWER LEVEL:          0  ACCURACY: -nan
PSCL2 TIMELY PREFETCHES:          0 LATE PREFETCHES: 0 DROPPED PREFETCHES: 0
PSCL2 PREFETCHES SAME FILL-ORIGIN LEVEL: 0 DIFFERENT FILL-ORIGIN LEVEL: 0

LLC TOTAL     ACCESS:        526  HIT:        424  MISS:        102  HIT %:    80.6084  MISS %:    19.3916   MPKI: 0.00051
LLC LOAD      ACCESS:        248  HIT:        213  MISS:         35  HIT %:    85.8871  MISS %:    14.1129   MPKI: 0.000175
LLC RFO       ACCESS:          7  HIT:          3  MISS:          4  HIT %:    42.8571  MISS %:    57.1429   MPKI: 2e-05
LLC PREFETCH  ACCESS:        119  HIT:         59  MISS:         60  HIT %:    49.5798  MISS %:    50.4202   MPKI: 0.0003
AGUS PREFETCH L1 MISS: 0
LLC WRITEBACK ACCESS:        149  HIT:        147  MISS:          2  HIT %:    98.6577  MISS %:    1.34228   MPKI: 1e-05
LLC LOAD TRANSLATION ACCESS:          1  HIT:          0  MISS:          1  HIT %:          0  MISS %:        100   MPKI: 5e-06
LLC TRANSLATION FROM L1D PREFETCHER ACCESS:          2  HIT:          2  MISS:          0  HIT %:        100  MISS %:          0   MPKI: 0
LLC PREFETCH  REQUESTED:          0  ISSUED:          0  USEFUL:          4  USELESS:         15
LLC USEFUL LOAD PREFETCHES:          4 PREFETCH ISSUED TO LOWER LEVEL:         60  ACCURACY: 6.66667
LLC TIMELY PREFETCHES:          4 LATE PREFETCHES: 0 DROPPED PREFETCHES: 0
LLC PREFETCHES SAME FILL-ORIGIN LEVEL: 0 DIFFERENT FILL-ORIGIN LEVEL: 0
LLC AVERAGE MISS LATENCY: 167.431 cycles
LLC RQ	ACCESS:        258	FORWARD:          0	MERGED:          0	TO_CACHE:        258
LLC WQ	ACCESS:        149	FORWARD:          0	MERGED:          0	TO_CACHE:        149
LLC PQ	ACCESS:        119	FORWARD:          0	MERGED:          0	TO_CACHE:        119

LLC Dense regions hint to LLC: 0

RAW hits: 3240392
Loads Generated: 48073854
Loads sent to L1D: 44833461
Stores Generated: 32718439
Stores sent to L1D: 32718443
Major fault: 0 Minor fault: 1999
Allocated PAGES: 1999
CPU 0 L1d next line prefetcher final stats

-63,2
-62,4
-61,0
-60,5
-59,1
-58,4
-57,1
-56,4
-55,5
-54,13
-53,2
-52,2
-51,1
-50,10
-49,1
-48,6
-47,3
-46,5
-45,3
-44,7
-43,2
-42,5
-41,6
-40,11
-39,5
-38,8
-37,3
-36,5
-35,4
-34,5
-33,1
-32,7
-31,7
-30,4
-29,2
-28,6
-27,5
-26,4
-25,4
-24,8
-23,2
-22,6
-21,2
-20,7
-19,4
-18,7
-17,2
-16,12
-15,9
-14,5
-13,6
-12,5
-11,3
-10,9
-9,5
-8,14
-7,10
-6,15
-5,6
-4,10
-3,12
-2,11
-1,13
0,26
1,106
2,97
3,83
4,82
5,76
6,75
7,66
8,63
9,68
10,69
11,65
12,74
13,69
14,74
15,70
16,83
17,60
18,67
19,62
20,63
21,63
22,57
23,51
24,57
25,56
26,68
27,63
28,66
29,67
30,70
31,75
32,72
33,74
34,75
35,65
36,74
37,67
38,65
39,59
40,58
41,55
42,59
43,56
44,64
45,59
46,59
47,57
48,68
49,64
50,66
51,65
52,71
53,68
54,67
55,56
56,58
57,56
58,57
59,51
60,60
61,52
62,60
63,65

DRAM Statistics
 CHANNEL 0
 RQ ROW_BUFFER_HIT:         26  ROW_BUFFER_MISS:         74
 DBUS_CONGESTED:          0
 WQ ROW_BUFFER_HIT:          6  ROW_BUFFER_MISS:         58  FULL:          0

 AVG_CONGESTED_CYCLE: -
 All warmup complete: 2
Channel 0 Bank busy for read cycles: 0
Channel 0 Bank busy for write cycles: 0
Channel 0
Rank 0
0banks busy for read cycles: 307711801
0banks busy for write cycles: 39
1banks busy for read cycles: 8476
1banks busy for write cycles: 5375
2banks busy for read cycles: 1794
2banks busy for write cycles: 1531
3banks busy for read cycles: 112
3banks busy for write cycles: 233
4banks busy for read cycles: 0
4banks busy for write cycles: 3
5banks busy for read cycles: 0
5banks busy for write cycles: 146
6banks busy for read cycles: 0
6banks busy for write cycles: 0
7banks busy for read cycles: 0
7banks busy for write cycles: 0
8banks busy for read cycles: 0
8banks busy for write cycles: 0

CPU 0 Branch Prediction Accuracy: 99.9167% MPKI: 0.130515 Average ROB Occupancy at Mispredict: 16.6236
Branch types
NOT_BRANCH: 168676427 84.3382%
BRANCH_DIRECT_JUMP: 1623386 0.811693%
BRANCH_INDIRECT: 12401141 6.20057%
BRANCH_CONDITIONAL: 7655294 3.82765%
BRANCH_DIRECT_CALL: 4362301 2.18115%
BRANCH_INDIRECT_CALL: 459562 0.229781%
BRANCH_RETURN: 4821864 2.41093%
BRANCH_OTHER: 0 0%

DRAM PAGES: 1048576
Allocated PAGES: 1999
