
*** ChampSim Multicore Out-of-Order Simulator ***

Warmup Instructions: 50000000
Simulation Instructions: 200000000
Number of CPUs: 1
LLC sets: 2048
LLC ways: 16
Off-chip DRAM Size: 4096 MB Channels: 1 Width: 64-bit Data Rate: 6400 MT/s
CPU 0 runs traces/spec2k17/server_013.champsimtrace.xz
.xz
BTB has LRU replacement policy
ITLB has LRU replacement policy
DTLB has LRU replacement policy
STLB has LRU replacement policy
L1I has LRU replacement policy
CPU 0 L2C next line prefetcher
L1D has LRU replacement policy
Initialize SRRIP state for L2C
Initialize DRRIP state for LLC
Heartbeat CPU 0 instructions: 10000002 cycles: 2788112 heartbeat IPC: 3.58666 cumulative IPC: 3.58666 (Simulation time: 0 hr 0 min 38 sec) 
Heartbeat CPU 0 instructions: 20000002 cycles: 5571255 heartbeat IPC: 3.59306 cumulative IPC: 3.58986 (Simulation time: 0 hr 1 min 16 sec) 
Heartbeat CPU 0 instructions: 30000000 cycles: 8356227 heartbeat IPC: 3.5907 cumulative IPC: 3.59014 (Simulation time: 0 hr 1 min 54 sec) 
Heartbeat CPU 0 instructions: 40000002 cycles: 11140519 heartbeat IPC: 3.59158 cumulative IPC: 3.5905 (Simulation time: 0 hr 2 min 30 sec) 
Heartbeat CPU 0 instructions: 50000002 cycles: 13925125 heartbeat IPC: 3.59117 cumulative IPC: 3.59063 (Simulation time: 0 hr 3 min 7 sec) 

Warmup complete CPU 0 instructions: 50000002 cycles: 13925125 (Simulation time: 0 hr 3 min 7 sec) 

Heartbeat CPU 0 instructions: 60000003 cycles: 39155411 heartbeat IPC: 0.396349 cumulative IPC: 0.396349 (Simulation time: 0 hr 4 min 1 sec) 
Heartbeat CPU 0 instructions: 70000000 cycles: 63835831 heartbeat IPC: 0.405179 cumulative IPC: 0.400716 (Simulation time: 0 hr 4 min 56 sec) 
Heartbeat CPU 0 instructions: 80000001 cycles: 88235481 heartbeat IPC: 0.409842 cumulative IPC: 0.403712 (Simulation time: 0 hr 5 min 50 sec) 
Heartbeat CPU 0 instructions: 90000001 cycles: 112276327 heartbeat IPC: 0.415959 cumulative IPC: 0.406706 (Simulation time: 0 hr 6 min 44 sec) 
Heartbeat CPU 0 instructions: 100000001 cycles: 136648429 heartbeat IPC: 0.410305 cumulative IPC: 0.407421 (Simulation time: 0 hr 7 min 35 sec) 
*** Reached end of trace for Core: 0 Repeating trace: traces/spec2k17/server_013.champsimtrace.xz
Heartbeat CPU 0 instructions: 110000000 cycles: 160805817 heartbeat IPC: 0.413952 cumulative IPC: 0.408495 (Simulation time: 0 hr 8 min 30 sec) 
Heartbeat CPU 0 instructions: 120000000 cycles: 184937217 heartbeat IPC: 0.414398 cumulative IPC: 0.409328 (Simulation time: 0 hr 9 min 21 sec) 
Heartbeat CPU 0 instructions: 130000003 cycles: 209230539 heartbeat IPC: 0.411636 cumulative IPC: 0.409615 (Simulation time: 0 hr 10 min 13 sec) 
Heartbeat CPU 0 instructions: 140000001 cycles: 233767305 heartbeat IPC: 0.407552 cumulative IPC: 0.409385 (Simulation time: 0 hr 11 min 7 sec) 
Heartbeat CPU 0 instructions: 150000002 cycles: 258005226 heartbeat IPC: 0.412577 cumulative IPC: 0.409702 (Simulation time: 0 hr 12 min 2 sec) 
Heartbeat CPU 0 instructions: 160000000 cycles: 283261654 heartbeat IPC: 0.395939 cumulative IPC: 0.408411 (Simulation time: 0 hr 12 min 56 sec) 
Heartbeat CPU 0 instructions: 170000000 cycles: 307096449 heartbeat IPC: 0.419555 cumulative IPC: 0.409317 (Simulation time: 0 hr 13 min 45 sec) 
Heartbeat CPU 0 instructions: 180000002 cycles: 331902870 heartbeat IPC: 0.403122 cumulative IPC: 0.408834 (Simulation time: 0 hr 14 min 38 sec) 
Heartbeat CPU 0 instructions: 190000002 cycles: 356001247 heartbeat IPC: 0.414966 cumulative IPC: 0.409266 (Simulation time: 0 hr 15 min 30 sec) 
Heartbeat CPU 0 instructions: 200000000 cycles: 380160000 heartbeat IPC: 0.413929 cumulative IPC: 0.409573 (Simulation time: 0 hr 16 min 24 sec) 
*** Reached end of trace for Core: 0 Repeating trace: traces/spec2k17/server_013.champsimtrace.xz
Heartbeat CPU 0 instructions: 210000003 cycles: 404834244 heartbeat IPC: 0.405281 cumulative IPC: 0.409302 (Simulation time: 0 hr 17 min 18 sec) 
Heartbeat CPU 0 instructions: 220000000 cycles: 428526609 heartbeat IPC: 0.422077 cumulative IPC: 0.410032 (Simulation time: 0 hr 18 min 10 sec) 
Heartbeat CPU 0 instructions: 230000000 cycles: 452722593 heartbeat IPC: 0.413292 cumulative IPC: 0.410212 (Simulation time: 0 hr 19 min 5 sec) 
Heartbeat CPU 0 instructions: 240000001 cycles: 476826484 heartbeat IPC: 0.414871 cumulative IPC: 0.410455 (Simulation time: 0 hr 20 min 0 sec) 
Heartbeat CPU 0 instructions: 250000002 cycles: 501221534 heartbeat IPC: 0.409919 cumulative IPC: 0.410428 (Simulation time: 0 hr 20 min 51 sec) 
Finished CPU 0 instructions: 200000000 cycles: 487296409 cumulative IPC: 0.410428 (Simulation time: 0 hr 20 min 51 sec) 

ChampSim completed all CPUs

Region of Interest Statistics

CPU 0 cumulative IPC: 0.410428 instructions: 200000000 cycles: 487296409
ITLB TOTAL     ACCESS:   31557968  HIT:   30735272  MISS:     822696  HIT %:    97.3931  MISS %:    2.60694   MPKI: 4.11348
ITLB LOAD TRANSLATION ACCESS:   31557968  HIT:   30735272  MISS:     822696  HIT %:    97.3931  MISS %:    2.60694   MPKI: 4.11348
ITLB PREFETCH  REQUESTED:          0  ISSUED:          0  USEFUL:          0  USELESS:          0
ITLB USEFUL LOAD PREFETCHES:          0 PREFETCH ISSUED TO LOWER LEVEL:          0  ACCURACY: -nan
ITLB TIMELY PREFETCHES:          0 LATE PREFETCHES: 0 DROPPED PREFETCHES: 0
ITLB PREFETCHES SAME FILL-ORIGIN LEVEL: 0 DIFFERENT FILL-ORIGIN LEVEL: 0
ITLB AVERAGE MISS LATENCY: 16.3988 cycles
ITLB RQ	ACCESS:   38401958	FORWARD:          0	MERGED:    6646606	TO_CACHE:   31755352

DTLB TOTAL     ACCESS:   37743222  HIT:   35192217  MISS:    2551005  HIT %:    93.2412  MISS %:    6.75884   MPKI: 12.755
DTLB LOAD TRANSLATION ACCESS:   37743222  HIT:   35192217  MISS:    2551005  HIT %:    93.2412  MISS %:    6.75884   MPKI: 12.755
DTLB PREFETCH  REQUESTED:          0  ISSUED:          0  USEFUL:          0  USELESS:          0
DTLB USEFUL LOAD PREFETCHES:          0 PREFETCH ISSUED TO LOWER LEVEL:          0  ACCURACY: -nan
DTLB TIMELY PREFETCHES:          0 LATE PREFETCHES: 0 DROPPED PREFETCHES: 0
DTLB PREFETCHES SAME FILL-ORIGIN LEVEL: 0 DIFFERENT FILL-ORIGIN LEVEL: 0
DTLB AVERAGE MISS LATENCY: 14.3083 cycles
DTLB RQ	ACCESS:   48107256	FORWARD:          0	MERGED:   10213545	TO_CACHE:   37893711

STLB TOTAL     ACCESS:    5256064  HIT:    4788345  MISS:     467719  HIT %:    91.1013  MISS %:    8.89865   MPKI: 2.3386
STLB LOAD TRANSLATION ACCESS:    3373701  HIT:    2912942  MISS:     460759  HIT %:    86.3426  MISS %:    13.6574   MPKI: 2.3038
STLB TRANSLATION FROM L1D PREFETCHER ACCESS:    1882363  HIT:    1875403  MISS:       6960  HIT %:    99.6303  MISS %:   0.369748   MPKI: 0.0348
STLB PREFETCH  REQUESTED:          0  ISSUED:          0  USEFUL:       5699  USELESS:       1261
STLB USEFUL LOAD PREFETCHES:       5699 PREFETCH ISSUED TO LOWER LEVEL:          0  ACCURACY: inf
STLB TIMELY PREFETCHES:       5699 LATE PREFETCHES: 259 DROPPED PREFETCHES: 15586
STLB PREFETCHES SAME FILL-ORIGIN LEVEL: 0 DIFFERENT FILL-ORIGIN LEVEL: 0
STLB AVERAGE MISS LATENCY: 2376.03 cycles
STLB RQ	ACCESS:    5469626	FORWARD:          0	MERGED:     196628	TO_CACHE:    5272998

STLB Hit, L1D data hit: 0
STLB Hit, L2C data hit: 0
STLB Hit, LLC data hit: 0
STLB Hit, LLC data miss: 0
STLB STLB hints to L2: 0
L1D TOTAL     ACCESS:   49429453  HIT:   45439178  MISS:    3990275  HIT %:    91.9273  MISS %:    8.07267   MPKI: 19.9514
L1D LOAD      ACCESS:   28059833  HIT:   26047357  MISS:    2012476  HIT %:    92.8279  MISS %:    7.17209   MPKI: 10.0624
L1D RFO       ACCESS:   19525627  HIT:   19181582  MISS:     344045  HIT %:     98.238  MISS %:    1.76202   MPKI: 1.72022
L1D PREFETCH  ACCESS:    1843993  HIT:     210239  MISS:    1633754  HIT %:    11.4013  MISS %:    88.5987   MPKI: 8.16877
AGUS PREFETCH L1 MISS: 0
L1D PREFETCH  REQUESTED:    4220728  ISSUED:    4220686  USEFUL:     378046  USELESS:    1255705
L1D USEFUL LOAD PREFETCHES:     378046 PREFETCH ISSUED TO LOWER LEVEL:    1674180  ACCURACY: 22.581
L1D TIMELY PREFETCHES:     378046 LATE PREFETCHES: 39492 DROPPED PREFETCHES: 17585
L1D PREFETCHES SAME FILL-ORIGIN LEVEL: 1674180 DIFFERENT FILL-ORIGIN LEVEL: 0
L1D AVERAGE MISS LATENCY: 2.62636e+06 cycles
L1D RQ	ACCESS:   42182640	FORWARD:          0	MERGED:   13805491	TO_CACHE:   28175059
L1D WQ	ACCESS:   20246575	FORWARD:     202489	MERGED:     314378	TO_CACHE:   19932197
L1D PQ	ACCESS:    2124761	FORWARD:          0	MERGED:      28437	TO_CACHE:    2095925

L1D UNIQUE REGIONS ACCESSED: 0
L1D REGIONS CONFLICTS: 0
L1D Cross Page Prefetch Requests: 75000
L1D Same Page Prefetch Requests: 2573543
L1D ROI Sum of L1D PQ occupancy: 28162693
L1D PREFETCHES PUSHED FROM L2C: 0
L1I TOTAL     ACCESS:   36704351  HIT:   31449871  MISS:    5254480  HIT %:    85.6843  MISS %:    14.3157   MPKI: 26.2724
L1I LOAD      ACCESS:   36704351  HIT:   31449871  MISS:    5254480  HIT %:    85.6843  MISS %:    14.3157   MPKI: 26.2724
L1I PREFETCH  REQUESTED:          0  ISSUED:          0  USEFUL:          0  USELESS:          0
L1I USEFUL LOAD PREFETCHES:          0 PREFETCH ISSUED TO LOWER LEVEL:          0  ACCURACY: -nan
L1I TIMELY PREFETCHES:          0 LATE PREFETCHES: 0 DROPPED PREFETCHES: 0
L1I PREFETCHES SAME FILL-ORIGIN LEVEL: 0 DIFFERENT FILL-ORIGIN LEVEL: 0
L1I AVERAGE MISS LATENCY: 29.7544 cycles
L1I RQ	ACCESS:   57189346	FORWARD:          0	MERGED:   18787388	TO_CACHE:   38401958

BTB TOTAL     ACCESS:   22787435  HIT:   17577150  MISS:    5210285  HIT %:    77.1353  MISS %:    22.8647   MPKI: 26.0514
BTB BRANCH_DIRECT_JUMP	ACCESS:    1802124  HIT:    1488715  MISS:     313409
BTB BRANCH_INDIRECT	ACCESS:    9657284  HIT:    7208240  MISS:    2449044
BTB BRANCH_CONDITIONAL	ACCESS:    4724018  HIT:    4227730  MISS:     496288
BTB BRANCH_DIRECT_CALL	ACCESS:    2593018  HIT:    1983731  MISS:     609287
BTB BRANCH_INDIRECT_CALL	ACCESS:     705122  HIT:     643336  MISS:      61786
BTB BRANCH_RETURN	ACCESS:    3305869  HIT:    2025398  MISS:    1280471
BTB BRANCH_OTHER ACCESS:          0  HIT:          0  MISS:          0

L2C TOTAL     ACCESS:   10925283  HIT:    5912629  MISS:    5012654  HIT %:    54.1188  MISS %:    45.8812   MPKI: 25.0633
L2C LOAD      ACCESS:    7227375  HIT:    3651810  MISS:    3575565  HIT %:    50.5275  MISS %:    49.4725   MPKI: 17.8778
L2C DATA LOAD MPKI: 4.86872
L2C INSTRUCTION LOAD MPKI: 13.0091
L2C RFO       ACCESS:     343050  HIT:     175695  MISS:     167355  HIT %:    51.2156  MISS %:    48.7844   MPKI: 0.836775
L2C PREFETCH  ACCESS:    1674161  HIT:     691772  MISS:     982389  HIT %:    41.3205  MISS %:    58.6795   MPKI: 4.91195
AGUS PREFETCH L1 MISS: 0
L2C DATA PREFETCH MPKI: 4.91195
L2C INSTRUCTION PREFETCH MPKI: 0
L2C WRITEBACK ACCESS:    1065686  HIT:    1024104  MISS:      41582  HIT %:    96.0981  MISS %:     3.9019   MPKI: 0.20791
L2C LOAD TRANSLATION ACCESS:     583779  HIT:     342727  MISS:     241052  HIT %:    58.7083  MISS %:    41.2917   MPKI: 1.20526
L2C TRANSLATION FROM L1D PREFETCHER ACCESS:      31232  HIT:      26521  MISS:       4711  HIT %:    84.9161  MISS %:    15.0839   MPKI: 0.023555
L2C PREFETCH  REQUESTED:          0  ISSUED:          0  USEFUL:      45612  USELESS:     941421
L2C USEFUL LOAD PREFETCHES:      45612 PREFETCH ISSUED TO LOWER LEVEL:     982389  ACCURACY: 4.64297
L2C TIMELY PREFETCHES:      45612 LATE PREFETCHES: 0 DROPPED PREFETCHES: 0
L2C PREFETCHES SAME FILL-ORIGIN LEVEL: 0 DIFFERENT FILL-ORIGIN LEVEL: 0
L2C AVERAGE MISS LATENCY: 41.7713 cycles
L2C RQ	ACCESS:    8185586	FORWARD:          0	MERGED:          0	TO_CACHE:    8185436
L2C WQ	ACCESS:    1065686	FORWARD:        169	MERGED:          0	TO_CACHE:    1065686
L2C PQ	ACCESS:    1674180	FORWARD:          0	MERGED:          0	TO_CACHE:    1674161

L2C Instructions Evicting Data 1118969
L2C Translations Evicting Data 109658
L2C Data Evicting Data 918473
L2C Instructions Evicting Instructions 1357380
L2C Translations Evicting Instructions 123523
L2C Data Evicting Instructions 1099531
L2C Instructions Evicting Translations 125472
L2C Translations Evicting Translations 12582
L2C Data Evicting Translations 105484
L2C Dense regions hint from L2: 0
PSCL5 TOTAL     ACCESS:     483321  HIT:     483321  MISS:          0  HIT %:        100  MISS %:          0   MPKI: 0
PSCL5 LOAD TRANSLATION ACCESS:     460516  HIT:     460516  MISS:          0  HIT %:        100  MISS %:          0   MPKI: 0
PSCL5 TRANSLATION FROM L1D PREFETCHER ACCESS:      22805  HIT:      22805  MISS:          0  HIT %:        100  MISS %:          0   MPKI: 0
PSCL5 PREFETCH  REQUESTED:          0  ISSUED:          0  USEFUL:          0  USELESS:          0
PSCL5 USEFUL LOAD PREFETCHES:          0 PREFETCH ISSUED TO LOWER LEVEL:          0  ACCURACY: -nan
PSCL5 TIMELY PREFETCHES:          0 LATE PREFETCHES: 0 DROPPED PREFETCHES: 0
PSCL5 PREFETCHES SAME FILL-ORIGIN LEVEL: 0 DIFFERENT FILL-ORIGIN LEVEL: 0

PSCL4 TOTAL     ACCESS:     455914  HIT:     454624  MISS:       1290  HIT %:    99.7171  MISS %:   0.282948   MPKI: 0.00645
PSCL4 LOAD TRANSLATION ACCESS:     435648  HIT:     434358  MISS:       1290  HIT %:    99.7039  MISS %:   0.296111   MPKI: 0.00645
PSCL4 TRANSLATION FROM L1D PREFETCHER ACCESS:      20266  HIT:      20266  MISS:          0  HIT %:        100  MISS %:          0   MPKI: 0
PSCL4 PREFETCH  REQUESTED:          0  ISSUED:          0  USEFUL:          0  USELESS:          0
PSCL4 USEFUL LOAD PREFETCHES:          0 PREFETCH ISSUED TO LOWER LEVEL:          0  ACCURACY: -nan
PSCL4 TIMELY PREFETCHES:          0 LATE PREFETCHES: 0 DROPPED PREFETCHES: 0
PSCL4 PREFETCHES SAME FILL-ORIGIN LEVEL: 0 DIFFERENT FILL-ORIGIN LEVEL: 0

PSCL3 TOTAL     ACCESS:     479998  HIT:     476090  MISS:       3908  HIT %:    99.1858  MISS %:    0.81417   MPKI: 0.01954
PSCL3 LOAD TRANSLATION ACCESS:     457323  HIT:     453415  MISS:       3908  HIT %:    99.1455  MISS %:   0.854538   MPKI: 0.01954
PSCL3 TRANSLATION FROM L1D PREFETCHER ACCESS:      22675  HIT:      22675  MISS:          0  HIT %:        100  MISS %:          0   MPKI: 0
PSCL3 PREFETCH  REQUESTED:          0  ISSUED:          0  USEFUL:          0  USELESS:          0
PSCL3 USEFUL LOAD PREFETCHES:          0 PREFETCH ISSUED TO LOWER LEVEL:          0  ACCURACY: -nan
PSCL3 TIMELY PREFETCHES:          0 LATE PREFETCHES: 0 DROPPED PREFETCHES: 0
PSCL3 PREFETCHES SAME FILL-ORIGIN LEVEL: 0 DIFFERENT FILL-ORIGIN LEVEL: 0

PSCL2 TOTAL     ACCESS:     476758  HIT:     356855  MISS:     119903  HIT %:    74.8503  MISS %:    25.1497   MPKI: 0.599515
PSCL2 LOAD TRANSLATION ACCESS:     462290  HIT:     342387  MISS:     119903  HIT %:    74.0633  MISS %:    25.9367   MPKI: 0.599515
PSCL2 TRANSLATION FROM L1D PREFETCHER ACCESS:      14468  HIT:      14468  MISS:          0  HIT %:        100  MISS %:          0   MPKI: 0
PSCL2 PREFETCH  REQUESTED:          0  ISSUED:          0  USEFUL:          0  USELESS:          0
PSCL2 USEFUL LOAD PREFETCHES:          0 PREFETCH ISSUED TO LOWER LEVEL:          0  ACCURACY: -nan
PSCL2 TIMELY PREFETCHES:          0 LATE PREFETCHES: 0 DROPPED PREFETCHES: 0
PSCL2 PREFETCHES SAME FILL-ORIGIN LEVEL: 0 DIFFERENT FILL-ORIGIN LEVEL: 0

LLC TOTAL     ACCESS:    5480464  HIT:    5091659  MISS:     388805  HIT %:    92.9056  MISS %:    7.09438   MPKI: 1.94402
LLC LOAD      ACCESS:    3575564  HIT:    3415113  MISS:     160451  HIT %:    95.5126  MISS %:    4.48743   MPKI: 0.802255
LLC RFO       ACCESS:     167355  HIT:     118104  MISS:      49251  HIT %:    70.5709  MISS %:    29.4291   MPKI: 0.246255
LLC PREFETCH  ACCESS:     982387  HIT:     815745  MISS:     166642  HIT %:     83.037  MISS %:     16.963   MPKI: 0.83321
AGUS PREFETCH L1 MISS: 0
LLC WRITEBACK ACCESS:     509395  HIT:     504310  MISS:       5085  HIT %:    99.0018  MISS %:   0.998243   MPKI: 0.025425
LLC LOAD TRANSLATION ACCESS:     241052  HIT:     234003  MISS:       7049  HIT %:    97.0757  MISS %:    2.92427   MPKI: 0.035245
LLC TRANSLATION FROM L1D PREFETCHER ACCESS:       4711  HIT:       4384  MISS:        327  HIT %:    93.0588  MISS %:     6.9412   MPKI: 0.001635
LLC PREFETCH  REQUESTED:          0  ISSUED:          0  USEFUL:       9933  USELESS:     156059
LLC USEFUL LOAD PREFETCHES:       9933 PREFETCH ISSUED TO LOWER LEVEL:     166642  ACCURACY: 5.96068
LLC TIMELY PREFETCHES:       9933 LATE PREFETCHES: 0 DROPPED PREFETCHES: 0
LLC PREFETCHES SAME FILL-ORIGIN LEVEL: 0 DIFFERENT FILL-ORIGIN LEVEL: 0
LLC AVERAGE MISS LATENCY: 154.864 cycles
LLC RQ	ACCESS:    3988683	FORWARD:          0	MERGED:          0	TO_CACHE:    3988682
LLC WQ	ACCESS:     509395	FORWARD:          3	MERGED:          0	TO_CACHE:     509395
LLC PQ	ACCESS:     982389	FORWARD:          0	MERGED:          0	TO_CACHE:     982387

LLC Dense regions hint to LLC: 0

RAW hits: 2635108
Loads Generated: 44817752
Loads sent to L1D: 42182640
Stores Generated: 20246567
Stores sent to L1D: 20246575
Major fault: 0 Minor fault: 6553
Allocated PAGES: 6553
CPU 0 L1d next line prefetcher final stats

-63,206
-62,182
-61,170
-60,201
-59,174
-58,131
-57,131
-56,129
-55,148
-54,163
-53,181
-52,158
-51,191
-50,246
-49,248
-48,171
-47,181
-46,211
-45,208
-44,184
-43,224
-42,266
-41,255
-40,262
-39,297
-38,278
-37,264
-36,274
-35,335
-34,351
-33,359
-32,348
-31,368
-30,385
-29,344
-28,366
-27,320
-26,322
-25,392
-24,396
-23,438
-22,410
-21,555
-20,503
-19,443
-18,502
-17,511
-16,490
-15,551
-14,614
-13,576
-12,644
-11,682
-10,761
-9,627
-8,655
-7,652
-6,750
-5,836
-4,893
-3,1103
-2,1597
-1,2489
0,2573
1,3316
2,2740
3,2449
4,3024
5,2225
6,2132
7,1971
8,2280
9,1795
10,1835
11,1618
12,1610
13,1482
14,1322
15,1404
16,1610
17,1229
18,1175
19,1249
20,1382
21,1042
22,1011
23,1047
24,1185
25,1119
26,965
27,1059
28,1120
29,1063
30,1097
31,1060
32,1078
33,1029
34,935
35,911
36,907
37,815
38,799
39,793
40,931
41,744
42,770
43,794
44,797
45,764
46,727
47,687
48,695
49,699
50,632
51,631
52,675
53,613
54,575
55,629
56,610
57,562
58,538
59,616
60,600
61,569
62,609
63,595

DRAM Statistics
 CHANNEL 0
 RQ ROW_BUFFER_HIT:      65190  ROW_BUFFER_MISS:     318529
 DBUS_CONGESTED:        106
 WQ ROW_BUFFER_HIT:      22445  ROW_BUFFER_MISS:     211595  FULL:          0

 AVG_CONGESTED_CYCLE: 4
 All warmup complete: 2
Channel 0 Bank busy for read cycles: 0
Channel 0 Bank busy for write cycles: 0
Channel 0
Rank 0
0banks busy for read cycles: 431127131
0banks busy for write cycles: 116035
1banks busy for read cycles: 19397490
1banks busy for write cycles: 12483572
2banks busy for read cycles: 11717681
2banks busy for write cycles: 6585348
3banks busy for read cycles: 1439733
3banks busy for write cycles: 1713952
4banks busy for read cycles: 560304
4banks busy for write cycles: 823387
5banks busy for read cycles: 143378
5banks busy for write cycles: 436290
6banks busy for read cycles: 54777
6banks busy for write cycles: 259102
7banks busy for read cycles: 30129
7banks busy for write cycles: 177335
8banks busy for read cycles: 50044
8banks busy for write cycles: 180722

CPU 0 Branch Prediction Accuracy: 99.7599% MPKI: 0.43378 Average ROB Occupancy at Mispredict: 28.3307
Branch types
NOT_BRANCH: 163865490 81.9327%
BRANCH_DIRECT_JUMP: 1802124 0.901062%
BRANCH_INDIRECT: 9657284 4.82864%
BRANCH_CONDITIONAL: 18071065 9.03553%
BRANCH_DIRECT_CALL: 2593018 1.29651%
BRANCH_INDIRECT_CALL: 705122 0.352561%
BRANCH_RETURN: 3305869 1.65293%
BRANCH_OTHER: 0 0%

DRAM PAGES: 1048576
Allocated PAGES: 6553
