
*** ChampSim Multicore Out-of-Order Simulator ***

Warmup Instructions: 50000000
Simulation Instructions: 200000000
Number of CPUs: 1
LLC sets: 2048
LLC ways: 16
Off-chip DRAM Size: 4096 MB Channels: 1 Width: 64-bit Data Rate: 6400 MT/s
CPU 0 runs traces/spec2k17/server_014.champsimtrace.xz
.xz
BTB has LRU replacement policy
ITLB has LRU replacement policy
DTLB has LRU replacement policy
STLB has LRU replacement policy
L1I has LRU replacement policy
CPU 0 L2C next line prefetcher
L1D has LRU replacement policy
Initialize SRRIP state for L2C
Initialize DRRIP state for LLC
Heartbeat CPU 0 instructions: 10000001 cycles: 2682149 heartbeat IPC: 3.72835 cumulative IPC: 3.72835 (Simulation time: 0 hr 0 min 30 sec) 
Heartbeat CPU 0 instructions: 20000000 cycles: 5401695 heartbeat IPC: 3.67708 cumulative IPC: 3.70254 (Simulation time: 0 hr 0 min 58 sec) 
Heartbeat CPU 0 instructions: 30000001 cycles: 8090295 heartbeat IPC: 3.71941 cumulative IPC: 3.70815 (Simulation time: 0 hr 1 min 26 sec) 
Heartbeat CPU 0 instructions: 40000001 cycles: 10779338 heartbeat IPC: 3.7188 cumulative IPC: 3.7108 (Simulation time: 0 hr 1 min 56 sec) 
Heartbeat CPU 0 instructions: 50000000 cycles: 13467471 heartbeat IPC: 3.72005 cumulative IPC: 3.71265 (Simulation time: 0 hr 2 min 24 sec) 

Warmup complete CPU 0 instructions: 50000004 cycles: 13467472 (Simulation time: 0 hr 2 min 24 sec) 

Heartbeat CPU 0 instructions: 60000003 cycles: 28884069 heartbeat IPC: 0.648652 cumulative IPC: 0.648652 (Simulation time: 0 hr 3 min 17 sec) 
Heartbeat CPU 0 instructions: 70000002 cycles: 44229462 heartbeat IPC: 0.651661 cumulative IPC: 0.650153 (Simulation time: 0 hr 4 min 8 sec) 
*** Reached end of trace for Core: 0 Repeating trace: traces/spec2k17/server_014.champsimtrace.xz
Heartbeat CPU 0 instructions: 80000001 cycles: 60140027 heartbeat IPC: 0.628513 cumulative IPC: 0.642776 (Simulation time: 0 hr 4 min 55 sec) 
Heartbeat CPU 0 instructions: 90000003 cycles: 77426403 heartbeat IPC: 0.57849 cumulative IPC: 0.625401 (Simulation time: 0 hr 5 min 45 sec) 
Heartbeat CPU 0 instructions: 100000000 cycles: 92841512 heartbeat IPC: 0.648714 cumulative IPC: 0.629929 (Simulation time: 0 hr 6 min 33 sec) 
Heartbeat CPU 0 instructions: 110000000 cycles: 108454848 heartbeat IPC: 0.640478 cumulative IPC: 0.631663 (Simulation time: 0 hr 7 min 24 sec) 
Heartbeat CPU 0 instructions: 120000000 cycles: 123824337 heartbeat IPC: 0.65064 cumulative IPC: 0.634306 (Simulation time: 0 hr 8 min 12 sec) 
Heartbeat CPU 0 instructions: 130000002 cycles: 139194840 heartbeat IPC: 0.650597 cumulative IPC: 0.636297 (Simulation time: 0 hr 9 min 2 sec) 
Heartbeat CPU 0 instructions: 140000001 cycles: 154567947 heartbeat IPC: 0.650487 cumulative IPC: 0.637843 (Simulation time: 0 hr 9 min 51 sec) 
Heartbeat CPU 0 instructions: 150000000 cycles: 169921855 heartbeat IPC: 0.6513 cumulative IPC: 0.639164 (Simulation time: 0 hr 10 min 41 sec) 
*** Reached end of trace for Core: 0 Repeating trace: traces/spec2k17/server_014.champsimtrace.xz
Heartbeat CPU 0 instructions: 160000000 cycles: 185903096 heartbeat IPC: 0.625734 cumulative IPC: 0.637919 (Simulation time: 0 hr 11 min 31 sec) 
Heartbeat CPU 0 instructions: 170000002 cycles: 203019493 heartbeat IPC: 0.584235 cumulative IPC: 0.633072 (Simulation time: 0 hr 12 min 24 sec) 
Heartbeat CPU 0 instructions: 180000000 cycles: 218419779 heartbeat IPC: 0.649338 cumulative IPC: 0.634294 (Simulation time: 0 hr 13 min 14 sec) 
Heartbeat CPU 0 instructions: 190000001 cycles: 234008427 heartbeat IPC: 0.641492 cumulative IPC: 0.634803 (Simulation time: 0 hr 14 min 2 sec) 
Heartbeat CPU 0 instructions: 200000000 cycles: 249370131 heartbeat IPC: 0.650969 cumulative IPC: 0.635855 (Simulation time: 0 hr 14 min 50 sec) 
Heartbeat CPU 0 instructions: 210000000 cycles: 264735690 heartbeat IPC: 0.650806 cumulative IPC: 0.63677 (Simulation time: 0 hr 15 min 40 sec) 
Heartbeat CPU 0 instructions: 220000000 cycles: 280103265 heartbeat IPC: 0.650721 cumulative IPC: 0.637574 (Simulation time: 0 hr 16 min 27 sec) 
Heartbeat CPU 0 instructions: 230000003 cycles: 295453893 heartbeat IPC: 0.651439 cumulative IPC: 0.638329 (Simulation time: 0 hr 17 min 17 sec) 
*** Reached end of trace for Core: 0 Repeating trace: traces/spec2k17/server_014.champsimtrace.xz
Heartbeat CPU 0 instructions: 240000000 cycles: 311494337 heartbeat IPC: 0.623424 cumulative IPC: 0.637526 (Simulation time: 0 hr 18 min 6 sec) 
Heartbeat CPU 0 instructions: 250000001 cycles: 328283947 heartbeat IPC: 0.595607 cumulative IPC: 0.635291 (Simulation time: 0 hr 18 min 56 sec) 
Finished CPU 0 instructions: 200000000 cycles: 314816476 cumulative IPC: 0.635291 (Simulation time: 0 hr 18 min 56 sec) 

ChampSim completed all CPUs

Region of Interest Statistics

CPU 0 cumulative IPC: 0.635291 instructions: 200000000 cycles: 314816476
ITLB TOTAL     ACCESS:   33935167  HIT:   32344868  MISS:    1590299  HIT %:    95.3137  MISS %:    4.68629   MPKI: 7.9515
ITLB LOAD TRANSLATION ACCESS:   33935167  HIT:   32344868  MISS:    1590299  HIT %:    95.3137  MISS %:    4.68629   MPKI: 7.9515
ITLB PREFETCH  REQUESTED:          0  ISSUED:          0  USEFUL:          0  USELESS:          0
ITLB USEFUL LOAD PREFETCHES:          0 PREFETCH ISSUED TO LOWER LEVEL:          0  ACCURACY: -nan
ITLB TIMELY PREFETCHES:          0 LATE PREFETCHES: 0 DROPPED PREFETCHES: 0
ITLB PREFETCHES SAME FILL-ORIGIN LEVEL: 0 DIFFERENT FILL-ORIGIN LEVEL: 0
ITLB AVERAGE MISS LATENCY: 9.04543 cycles
ITLB RQ	ACCESS:   39384643	FORWARD:          0	MERGED:    4929316	TO_CACHE:   34455327

DTLB TOTAL     ACCESS:   39448217  HIT:   38770253  MISS:     677964  HIT %:    98.2814  MISS %:    1.71862   MPKI: 3.38982
DTLB LOAD TRANSLATION ACCESS:   39448217  HIT:   38770253  MISS:     677964  HIT %:    98.2814  MISS %:    1.71862   MPKI: 3.38982
DTLB PREFETCH  REQUESTED:          0  ISSUED:          0  USEFUL:          0  USELESS:          0
DTLB USEFUL LOAD PREFETCHES:          0 PREFETCH ISSUED TO LOWER LEVEL:          0  ACCURACY: -nan
DTLB TIMELY PREFETCHES:          0 LATE PREFETCHES: 0 DROPPED PREFETCHES: 0
DTLB PREFETCHES SAME FILL-ORIGIN LEVEL: 0 DIFFERENT FILL-ORIGIN LEVEL: 0
DTLB AVERAGE MISS LATENCY: 9.45061 cycles
DTLB RQ	ACCESS:   59050766	FORWARD:          0	MERGED:   19561829	TO_CACHE:   39488937

STLB TOTAL     ACCESS:    2320041  HIT:    2316522  MISS:       3519  HIT %:    99.8483  MISS %:   0.151678   MPKI: 0.017595
STLB LOAD TRANSLATION ACCESS:    2268263  HIT:    2265035  MISS:       3228  HIT %:    99.8577  MISS %:   0.142312   MPKI: 0.01614
STLB TRANSLATION FROM L1D PREFETCHER ACCESS:      51778  HIT:      51487  MISS:        291  HIT %:     99.438  MISS %:   0.562015   MPKI: 0.001455
STLB PREFETCH  REQUESTED:          0  ISSUED:          0  USEFUL:        289  USELESS:          1
STLB USEFUL LOAD PREFETCHES:        289 PREFETCH ISSUED TO LOWER LEVEL:          0  ACCURACY: inf
STLB TIMELY PREFETCHES:        289 LATE PREFETCHES: 27 DROPPED PREFETCHES: 1907
STLB PREFETCHES SAME FILL-ORIGIN LEVEL: 0 DIFFERENT FILL-ORIGIN LEVEL: 0
STLB AVERAGE MISS LATENCY: 290759 cycles
STLB RQ	ACCESS:    2344517	FORWARD:          0	MERGED:      22261	TO_CACHE:    2322256

STLB Hit, L1D data hit: 0
STLB Hit, L2C data hit: 0
STLB Hit, LLC data hit: 0
STLB Hit, LLC data miss: 0
STLB STLB hints to L2: 0
L1D TOTAL     ACCESS:   58928886  HIT:   58721672  MISS:     207214  HIT %:    99.6484  MISS %:   0.351634   MPKI: 1.03607
L1D LOAD      ACCESS:   26943712  HIT:   26871434  MISS:      72278  HIT %:    99.7317  MISS %:   0.268256   MPKI: 0.36139
L1D RFO       ACCESS:   31941997  HIT:   31845564  MISS:      96433  HIT %:    99.6981  MISS %:     0.3019   MPKI: 0.482165
L1D PREFETCH  ACCESS:      43177  HIT:       4674  MISS:      38503  HIT %:    10.8252  MISS %:    89.1748   MPKI: 0.192515
AGUS PREFETCH L1 MISS: 0
L1D PREFETCH  REQUESTED:     154466  ISSUED:     154269  USEFUL:      14781  USELESS:      23763
L1D USEFUL LOAD PREFETCHES:      14781 PREFETCH ISSUED TO LOWER LEVEL:      44907  ACCURACY: 32.9147
L1D TIMELY PREFETCHES:      14781 LATE PREFETCHES: 6382 DROPPED PREFETCHES: 2244
L1D PREFETCHES SAME FILL-ORIGIN LEVEL: 44907 DIFFERENT FILL-ORIGIN LEVEL: 0
L1D AVERAGE MISS LATENCY: 6.60044e+06 cycles
L1D RQ	ACCESS:   44731179	FORWARD:          0	MERGED:   17403404	TO_CACHE:   26949735
L1D WQ	ACCESS:   32528945	FORWARD:     378042	MERGED:     427914	TO_CACHE:   32101031
L1D PQ	ACCESS:      78015	FORWARD:          0	MERGED:       1759	TO_CACHE:      76254

L1D UNIQUE REGIONS ACCESSED: 0
L1D REGIONS CONFLICTS: 0
L1D Cross Page Prefetch Requests: 12868
L1D Same Page Prefetch Requests: 89626
L1D ROI Sum of L1D PQ occupancy: 3845802
L1D PREFETCHES PUSHED FROM L2C: 0
L1I TOTAL     ACCESS:   38023851  HIT:   32321536  MISS:    5702315  HIT %:    85.0033  MISS %:    14.9967   MPKI: 28.5116
L1I LOAD      ACCESS:   38023851  HIT:   32321536  MISS:    5702315  HIT %:    85.0033  MISS %:    14.9967   MPKI: 28.5116
L1I PREFETCH  REQUESTED:          0  ISSUED:          0  USEFUL:          0  USELESS:          0
L1I USEFUL LOAD PREFETCHES:          0 PREFETCH ISSUED TO LOWER LEVEL:          0  ACCURACY: -nan
L1I TIMELY PREFETCHES:          0 LATE PREFETCHES: 0 DROPPED PREFETCHES: 0
L1I PREFETCHES SAME FILL-ORIGIN LEVEL: 0 DIFFERENT FILL-ORIGIN LEVEL: 0
L1I AVERAGE MISS LATENCY: 14.6179 cycles
L1I RQ	ACCESS:   60213639	FORWARD:          0	MERGED:   20828996	TO_CACHE:   39384643

BTB TOTAL     ACCESS:   28030751  HIT:   25492705  MISS:    2538046  HIT %:    90.9455  MISS %:    9.05451   MPKI: 12.6902
BTB BRANCH_DIRECT_JUMP	ACCESS:    1660185  HIT:    1656204  MISS:       3981
BTB BRANCH_INDIRECT	ACCESS:   12451124  HIT:   11582007  MISS:     869117
BTB BRANCH_CONDITIONAL	ACCESS:    4291215  HIT:    4285628  MISS:       5587
BTB BRANCH_DIRECT_CALL	ACCESS:    4358215  HIT:    4347520  MISS:      10695
BTB BRANCH_INDIRECT_CALL	ACCESS:     455923  HIT:     405462  MISS:      50461
BTB BRANCH_RETURN	ACCESS:    4814089  HIT:    3215884  MISS:    1598205
BTB BRANCH_OTHER ACCESS:          0  HIT:          0  MISS:          0

L2C TOTAL     ACCESS:    6029463  HIT:    5814177  MISS:     215286  HIT %:    96.4294  MISS %:    3.57057   MPKI: 1.07643
L2C LOAD      ACCESS:    5768208  HIT:    5685051  MISS:      83157  HIT %:    98.5584  MISS %:    1.44164   MPKI: 0.415785
L2C DATA LOAD MPKI: 0.246775
L2C INSTRUCTION LOAD MPKI: 0.16901
L2C RFO       ACCESS:      96411  HIT:       3530  MISS:      92881  HIT %:    3.66141  MISS %:    96.3386   MPKI: 0.464405
L2C PREFETCH  ACCESS:      44906  HIT:      10272  MISS:      34634  HIT %:    22.8744  MISS %:    77.1256   MPKI: 0.17317
AGUS PREFETCH L1 MISS: 0
L2C DATA PREFETCH MPKI: 0.17317
L2C INSTRUCTION PREFETCH MPKI: 0
L2C WRITEBACK ACCESS:     113674  HIT:     111174  MISS:       2500  HIT %:    97.8007  MISS %:    2.19927   MPKI: 0.0125
L2C LOAD TRANSLATION ACCESS:       3656  HIT:       1857  MISS:       1799  HIT %:    50.7932  MISS %:    49.2068   MPKI: 0.008995
L2C TRANSLATION FROM L1D PREFETCHER ACCESS:       2608  HIT:       2293  MISS:        315  HIT %:    87.9218  MISS %:    12.0782   MPKI: 0.001575
L2C PREFETCH  REQUESTED:          0  ISSUED:          0  USEFUL:       1240  USELESS:      34468
L2C USEFUL LOAD PREFETCHES:       1240 PREFETCH ISSUED TO LOWER LEVEL:      34634  ACCURACY: 3.5803
L2C TIMELY PREFETCHES:       1240 LATE PREFETCHES: 0 DROPPED PREFETCHES: 0
L2C PREFETCHES SAME FILL-ORIGIN LEVEL: 0 DIFFERENT FILL-ORIGIN LEVEL: 0
L2C AVERAGE MISS LATENCY: 193.613 cycles
L2C RQ	ACCESS:    5870885	FORWARD:          0	MERGED:          0	TO_CACHE:    5870883
L2C WQ	ACCESS:     113674	FORWARD:          3	MERGED:          0	TO_CACHE:     113674
L2C PQ	ACCESS:      44907	FORWARD:          0	MERGED:          0	TO_CACHE:      44906

L2C Instructions Evicting Data 28634
L2C Translations Evicting Data 1769
L2C Data Evicting Data 147024
L2C Instructions Evicting Instructions 4819
L2C Translations Evicting Instructions 305
L2C Data Evicting Instructions 28032
L2C Instructions Evicting Translations 349
L2C Translations Evicting Translations 40
L2C Data Evicting Translations 1814
L2C Dense regions hint from L2: 0
PSCL5 TOTAL     ACCESS:       5386  HIT:       5386  MISS:          0  HIT %:        100  MISS %:          0   MPKI: 0
PSCL5 LOAD TRANSLATION ACCESS:       3201  HIT:       3201  MISS:          0  HIT %:        100  MISS %:          0   MPKI: 0
PSCL5 TRANSLATION FROM L1D PREFETCHER ACCESS:       2185  HIT:       2185  MISS:          0  HIT %:        100  MISS %:          0   MPKI: 0
PSCL5 PREFETCH  REQUESTED:          0  ISSUED:          0  USEFUL:          0  USELESS:          0
PSCL5 USEFUL LOAD PREFETCHES:          0 PREFETCH ISSUED TO LOWER LEVEL:          0  ACCURACY: -nan
PSCL5 TIMELY PREFETCHES:          0 LATE PREFETCHES: 0 DROPPED PREFETCHES: 0
PSCL5 PREFETCHES SAME FILL-ORIGIN LEVEL: 0 DIFFERENT FILL-ORIGIN LEVEL: 0

PSCL4 TOTAL     ACCESS:       3165  HIT:       3145  MISS:         20  HIT %:    99.3681  MISS %:   0.631912   MPKI: 0.0001
PSCL4 LOAD TRANSLATION ACCESS:       1931  HIT:       1911  MISS:         20  HIT %:    98.9643  MISS %:    1.03573   MPKI: 0.0001
PSCL4 TRANSLATION FROM L1D PREFETCHER ACCESS:       1234  HIT:       1234  MISS:          0  HIT %:        100  MISS %:          0   MPKI: 0
PSCL4 PREFETCH  REQUESTED:          0  ISSUED:          0  USEFUL:          0  USELESS:          0
PSCL4 USEFUL LOAD PREFETCHES:          0 PREFETCH ISSUED TO LOWER LEVEL:          0  ACCURACY: -nan
PSCL4 TIMELY PREFETCHES:          0 LATE PREFETCHES: 0 DROPPED PREFETCHES: 0
PSCL4 PREFETCHES SAME FILL-ORIGIN LEVEL: 0 DIFFERENT FILL-ORIGIN LEVEL: 0

PSCL3 TOTAL     ACCESS:       5022  HIT:       5002  MISS:         20  HIT %:    99.6018  MISS %:   0.398248   MPKI: 0.0001
PSCL3 LOAD TRANSLATION ACCESS:       2952  HIT:       2932  MISS:         20  HIT %:    99.3225  MISS %:   0.677507   MPKI: 0.0001
PSCL3 TRANSLATION FROM L1D PREFETCHER ACCESS:       2070  HIT:       2070  MISS:          0  HIT %:        100  MISS %:          0   MPKI: 0
PSCL3 PREFETCH  REQUESTED:          0  ISSUED:          0  USEFUL:          0  USELESS:          0
PSCL3 USEFUL LOAD PREFETCHES:          0 PREFETCH ISSUED TO LOWER LEVEL:          0  ACCURACY: -nan
PSCL3 TIMELY PREFETCHES:          0 LATE PREFETCHES: 0 DROPPED PREFETCHES: 0
PSCL3 PREFETCHES SAME FILL-ORIGIN LEVEL: 0 DIFFERENT FILL-ORIGIN LEVEL: 0

PSCL2 TOTAL     ACCESS:       5027  HIT:       4597  MISS:        430  HIT %:    91.4462  MISS %:    8.55381   MPKI: 0.00215
PSCL2 LOAD TRANSLATION ACCESS:       3216  HIT:       2786  MISS:        430  HIT %:    86.6294  MISS %:    13.3706   MPKI: 0.00215
PSCL2 TRANSLATION FROM L1D PREFETCHER ACCESS:       1811  HIT:       1811  MISS:          0  HIT %:        100  MISS %:          0   MPKI: 0
PSCL2 PREFETCH  REQUESTED:          0  ISSUED:          0  USEFUL:          0  USELESS:          0
PSCL2 USEFUL LOAD PREFETCHES:          0 PREFETCH ISSUED TO LOWER LEVEL:          0  ACCURACY: -nan
PSCL2 TIMELY PREFETCHES:          0 LATE PREFETCHES: 0 DROPPED PREFETCHES: 0
PSCL2 PREFETCHES SAME FILL-ORIGIN LEVEL: 0 DIFFERENT FILL-ORIGIN LEVEL: 0

LLC TOTAL     ACCESS:     314673  HIT:     160599  MISS:     154074  HIT %:    51.0368  MISS %:    48.9632   MPKI: 0.77037
LLC LOAD      ACCESS:      83157  HIT:      34043  MISS:      49114  HIT %:    40.9382  MISS %:    59.0618   MPKI: 0.24557
LLC RFO       ACCESS:      92881  HIT:      26435  MISS:      66446  HIT %:    28.4611  MISS %:    71.5389   MPKI: 0.33223
LLC PREFETCH  ACCESS:      34634  HIT:       8817  MISS:      25817  HIT %:    25.4576  MISS %:    74.5424   MPKI: 0.129085
AGUS PREFETCH L1 MISS: 0
LLC WRITEBACK ACCESS:     101887  HIT:      90450  MISS:      11437  HIT %:    88.7748  MISS %:    11.2252   MPKI: 0.057185
LLC LOAD TRANSLATION ACCESS:       1799  HIT:        683  MISS:       1116  HIT %:    37.9655  MISS %:    62.0345   MPKI: 0.00558
LLC TRANSLATION FROM L1D PREFETCHER ACCESS:        315  HIT:        171  MISS:        144  HIT %:    54.2857  MISS %:    45.7143   MPKI: 0.00072
LLC PREFETCH  REQUESTED:          0  ISSUED:          0  USEFUL:       1918  USELESS:      27086
LLC USEFUL LOAD PREFETCHES:       1918 PREFETCH ISSUED TO LOWER LEVEL:      25817  ACCURACY: 7.42921
LLC TIMELY PREFETCHES:       1918 LATE PREFETCHES: 0 DROPPED PREFETCHES: 0
LLC PREFETCHES SAME FILL-ORIGIN LEVEL: 0 DIFFERENT FILL-ORIGIN LEVEL: 0
LLC AVERAGE MISS LATENCY: 229.079 cycles
LLC RQ	ACCESS:     178152	FORWARD:          0	MERGED:          0	TO_CACHE:     178152
LLC WQ	ACCESS:     101887	FORWARD:          0	MERGED:          0	TO_CACHE:     101887
LLC PQ	ACCESS:      34634	FORWARD:          0	MERGED:          0	TO_CACHE:      34634

LLC Dense regions hint to LLC: 0

RAW hits: 3284216
Loads Generated: 48015396
Loads sent to L1D: 44731179
Stores Generated: 32528949
Stores sent to L1D: 32528945
Major fault: 0 Minor fault: 2022
Allocated PAGES: 2022
CPU 0 L1d next line prefetcher final stats

-63,6
-62,14
-61,5
-60,22
-59,11
-58,23
-57,9
-56,28
-55,15
-54,25
-53,8
-52,25
-51,17
-50,24
-49,11
-48,21
-47,9
-46,22
-45,7
-44,17
-43,20
-42,15
-41,8
-40,19
-39,8
-38,16
-37,13
-36,20
-35,15
-34,22
-33,14
-32,19
-31,18
-30,28
-29,12
-28,19
-27,9
-26,20
-25,12
-24,28
-23,11
-22,23
-21,11
-20,25
-19,11
-18,31
-17,15
-16,31
-15,24
-14,30
-13,24
-12,24
-11,25
-10,35
-9,34
-8,38
-7,31
-6,39
-5,29
-4,39
-3,39
-2,57
-1,68
0,83
1,441
2,429
3,400
4,394
5,367
6,385
7,370
8,401
9,369
10,364
11,350
12,369
13,339
14,352
15,358
16,380
17,348
18,355
19,334
20,339
21,344
22,357
23,333
24,357
25,334
26,342
27,344
28,346
29,336
30,338
31,333
32,348
33,346
34,363
35,337
36,328
37,334
38,340
39,325
40,334
41,326
42,331
43,313
44,330
45,318
46,324
47,312
48,330
49,322
50,344
51,322
52,319
53,314
54,338
55,312
56,319
57,308
58,316
59,315
60,308
61,314
62,332
63,316

DRAM Statistics
 CHANNEL 0
 RQ ROW_BUFFER_HIT:      64875  ROW_BUFFER_MISS:      77759
 DBUS_CONGESTED:         33
 WQ ROW_BUFFER_HIT:      16836  ROW_BUFFER_MISS:      53028  FULL:          0

 AVG_CONGESTED_CYCLE: 4
 All warmup complete: 2
Channel 0 Bank busy for read cycles: 0
Channel 0 Bank busy for write cycles: 0
Channel 0
Rank 0
0banks busy for read cycles: 305697063
0banks busy for write cycles: 7354
1banks busy for read cycles: 2628384
1banks busy for write cycles: 1092687
2banks busy for read cycles: 1177381
2banks busy for write cycles: 640528
3banks busy for read cycles: 328595
3banks busy for write cycles: 366976
4banks busy for read cycles: 223202
4banks busy for write cycles: 228320
5banks busy for read cycles: 158223
5banks busy for write cycles: 138117
6banks busy for read cycles: 194455
6banks busy for write cycles: 108264
7banks busy for read cycles: 265766
7banks busy for write cycles: 170358
8banks busy for read cycles: 576862
8banks busy for write cycles: 813942

CPU 0 Branch Prediction Accuracy: 99.8714% MPKI: 0.20299 Average ROB Occupancy at Mispredict: 16.1679
Branch types
NOT_BRANCH: 168420567 84.2103%
BRANCH_DIRECT_JUMP: 1660185 0.830093%
BRANCH_INDIRECT: 12451124 6.22556%
BRANCH_CONDITIONAL: 7839905 3.91995%
BRANCH_DIRECT_CALL: 4358215 2.17911%
BRANCH_INDIRECT_CALL: 455923 0.227962%
BRANCH_RETURN: 4814089 2.40704%
BRANCH_OTHER: 0 0%

DRAM PAGES: 1048576
Allocated PAGES: 2022
