
*** ChampSim Multicore Out-of-Order Simulator ***

Warmup Instructions: 50000000
Simulation Instructions: 200000000
Number of CPUs: 1
LLC sets: 2048
LLC ways: 16
Off-chip DRAM Size: 4096 MB Channels: 1 Width: 64-bit Data Rate: 6400 MT/s
CPU 0 runs traces/spec2k17/srv_22.champsimtrace.xz
.xz
BTB has LRU replacement policy
ITLB has LRU replacement policy
DTLB has LRU replacement policy
STLB has LRU replacement policy
L1I has LRU replacement policy
CPU 0 L2C next line prefetcher
L1D has LRU replacement policy
Initialize SRRIP state for L2C
Initialize DRRIP state for LLC
Heartbeat CPU 0 instructions: 10000000 cycles: 2819480 heartbeat IPC: 3.54675 cumulative IPC: 3.54675 (Simulation time: 0 hr 0 min 34 sec) 
Heartbeat CPU 0 instructions: 20000000 cycles: 5638441 heartbeat IPC: 3.54741 cumulative IPC: 3.54708 (Simulation time: 0 hr 1 min 8 sec) 
Heartbeat CPU 0 instructions: 30000000 cycles: 8458523 heartbeat IPC: 3.546 cumulative IPC: 3.54672 (Simulation time: 0 hr 1 min 44 sec) 
*** Reached end of trace for Core: 0 Repeating trace: traces/spec2k17/srv_22.champsimtrace.xz
Heartbeat CPU 0 instructions: 40000003 cycles: 11273365 heartbeat IPC: 3.5526 cumulative IPC: 3.54819 (Simulation time: 0 hr 2 min 18 sec) 
Heartbeat CPU 0 instructions: 50000001 cycles: 14091319 heartbeat IPC: 3.54867 cumulative IPC: 3.54828 (Simulation time: 0 hr 2 min 53 sec) 

Warmup complete CPU 0 instructions: 50000001 cycles: 14091319 (Simulation time: 0 hr 2 min 53 sec) 

Heartbeat CPU 0 instructions: 60000000 cycles: 44909304 heartbeat IPC: 0.324486 cumulative IPC: 0.324486 (Simulation time: 0 hr 3 min 54 sec) 
*** Reached end of trace for Core: 0 Repeating trace: traces/spec2k17/srv_22.champsimtrace.xz
Heartbeat CPU 0 instructions: 70000001 cycles: 75117984 heartbeat IPC: 0.331031 cumulative IPC: 0.327726 (Simulation time: 0 hr 4 min 52 sec) 
Heartbeat CPU 0 instructions: 80000001 cycles: 105830318 heartbeat IPC: 0.325602 cumulative IPC: 0.327015 (Simulation time: 0 hr 5 min 49 sec) 
Heartbeat CPU 0 instructions: 90000000 cycles: 135990662 heartbeat IPC: 0.331561 cumulative IPC: 0.32814 (Simulation time: 0 hr 6 min 46 sec) 
*** Reached end of trace for Core: 0 Repeating trace: traces/spec2k17/srv_22.champsimtrace.xz
Heartbeat CPU 0 instructions: 100000002 cycles: 166217456 heartbeat IPC: 0.330832 cumulative IPC: 0.328675 (Simulation time: 0 hr 7 min 43 sec) 
Heartbeat CPU 0 instructions: 110000000 cycles: 196783507 heartbeat IPC: 0.32716 cumulative IPC: 0.328421 (Simulation time: 0 hr 8 min 38 sec) 
Heartbeat CPU 0 instructions: 120000000 cycles: 227021916 heartbeat IPC: 0.330705 cumulative IPC: 0.328746 (Simulation time: 0 hr 9 min 36 sec) 
*** Reached end of trace for Core: 0 Repeating trace: traces/spec2k17/srv_22.champsimtrace.xz
Heartbeat CPU 0 instructions: 130000000 cycles: 257352276 heartbeat IPC: 0.329703 cumulative IPC: 0.328865 (Simulation time: 0 hr 10 min 32 sec) 
Heartbeat CPU 0 instructions: 140000002 cycles: 287775294 heartbeat IPC: 0.328699 cumulative IPC: 0.328846 (Simulation time: 0 hr 11 min 28 sec) 
Heartbeat CPU 0 instructions: 150000003 cycles: 318209364 heartbeat IPC: 0.328579 cumulative IPC: 0.32882 (Simulation time: 0 hr 12 min 27 sec) 
*** Reached end of trace for Core: 0 Repeating trace: traces/spec2k17/srv_22.champsimtrace.xz
Heartbeat CPU 0 instructions: 160000000 cycles: 348701429 heartbeat IPC: 0.327954 cumulative IPC: 0.328741 (Simulation time: 0 hr 13 min 25 sec) 
Heartbeat CPU 0 instructions: 170000001 cycles: 378750450 heartbeat IPC: 0.33279 cumulative IPC: 0.329074 (Simulation time: 0 hr 14 min 22 sec) 
Heartbeat CPU 0 instructions: 180000001 cycles: 409300901 heartbeat IPC: 0.327327 cumulative IPC: 0.328939 (Simulation time: 0 hr 15 min 21 sec) 
*** Reached end of trace for Core: 0 Repeating trace: traces/spec2k17/srv_22.champsimtrace.xz
Heartbeat CPU 0 instructions: 190000003 cycles: 439640167 heartbeat IPC: 0.329606 cumulative IPC: 0.328987 (Simulation time: 0 hr 16 min 19 sec) 
Heartbeat CPU 0 instructions: 200000001 cycles: 469751334 heartbeat IPC: 0.332103 cumulative IPC: 0.329193 (Simulation time: 0 hr 17 min 16 sec) 
Heartbeat CPU 0 instructions: 210000000 cycles: 500296637 heartbeat IPC: 0.327383 cumulative IPC: 0.329079 (Simulation time: 0 hr 18 min 9 sec) 
*** Reached end of trace for Core: 0 Repeating trace: traces/spec2k17/srv_22.champsimtrace.xz
Heartbeat CPU 0 instructions: 220000000 cycles: 530578108 heartbeat IPC: 0.330235 cumulative IPC: 0.329147 (Simulation time: 0 hr 19 min 4 sec) 
Heartbeat CPU 0 instructions: 230000001 cycles: 560490973 heartbeat IPC: 0.334304 cumulative IPC: 0.329429 (Simulation time: 0 hr 20 min 4 sec) 
Heartbeat CPU 0 instructions: 240000001 cycles: 591126716 heartbeat IPC: 0.326416 cumulative IPC: 0.329269 (Simulation time: 0 hr 21 min 3 sec) 
*** Reached end of trace for Core: 0 Repeating trace: traces/spec2k17/srv_22.champsimtrace.xz
Heartbeat CPU 0 instructions: 250000001 cycles: 621469069 heartbeat IPC: 0.329572 cumulative IPC: 0.329284 (Simulation time: 0 hr 22 min 1 sec) 
Finished CPU 0 instructions: 200000000 cycles: 607377750 cumulative IPC: 0.329284 (Simulation time: 0 hr 22 min 1 sec) 

ChampSim completed all CPUs

Region of Interest Statistics

CPU 0 cumulative IPC: 0.329284 instructions: 200000000 cycles: 607377750
ITLB TOTAL     ACCESS:   34477036  HIT:   32621148  MISS:    1855888  HIT %:     94.617  MISS %:    5.38297   MPKI: 9.27944
ITLB LOAD TRANSLATION ACCESS:   34477036  HIT:   32621148  MISS:    1855888  HIT %:     94.617  MISS %:    5.38297   MPKI: 9.27944
ITLB PREFETCH  REQUESTED:          0  ISSUED:          0  USEFUL:          0  USELESS:          0
ITLB USEFUL LOAD PREFETCHES:          0 PREFETCH ISSUED TO LOWER LEVEL:          0  ACCURACY: -nan
ITLB TIMELY PREFETCHES:          0 LATE PREFETCHES: 0 DROPPED PREFETCHES: 0
ITLB PREFETCHES SAME FILL-ORIGIN LEVEL: 0 DIFFERENT FILL-ORIGIN LEVEL: 0
ITLB AVERAGE MISS LATENCY: 9.05188 cycles
ITLB RQ	ACCESS:   40304135	FORWARD:          0	MERGED:    5379472	TO_CACHE:   34924663

DTLB TOTAL     ACCESS:   45329784  HIT:   43535083  MISS:    1794701  HIT %:    96.0408  MISS %:    3.95921   MPKI: 8.9735
DTLB LOAD TRANSLATION ACCESS:   45329784  HIT:   43535083  MISS:    1794701  HIT %:    96.0408  MISS %:    3.95921   MPKI: 8.9735
DTLB PREFETCH  REQUESTED:          0  ISSUED:          0  USEFUL:          0  USELESS:          0
DTLB USEFUL LOAD PREFETCHES:          0 PREFETCH ISSUED TO LOWER LEVEL:          0  ACCURACY: -nan
DTLB TIMELY PREFETCHES:          0 LATE PREFETCHES: 0 DROPPED PREFETCHES: 0
DTLB PREFETCHES SAME FILL-ORIGIN LEVEL: 0 DIFFERENT FILL-ORIGIN LEVEL: 0
DTLB AVERAGE MISS LATENCY: 9.22756 cycles
DTLB RQ	ACCESS:   59836750	FORWARD:          0	MERGED:   14442880	TO_CACHE:   45393870

STLB TOTAL     ACCESS:    6141830  HIT:    6131864  MISS:       9966  HIT %:    99.8377  MISS %:   0.162264   MPKI: 0.04983
STLB LOAD TRANSLATION ACCESS:    3650589  HIT:    3640962  MISS:       9627  HIT %:    99.7363  MISS %:   0.263711   MPKI: 0.048135
STLB TRANSLATION FROM L1D PREFETCHER ACCESS:    2491241  HIT:    2490902  MISS:        339  HIT %:    99.9864  MISS %:  0.0136077   MPKI: 0.001695
STLB PREFETCH  REQUESTED:          0  ISSUED:          0  USEFUL:        313  USELESS:         26
STLB USEFUL LOAD PREFETCHES:        313 PREFETCH ISSUED TO LOWER LEVEL:          0  ACCURACY: inf
STLB TIMELY PREFETCHES:        313 LATE PREFETCHES: 124 DROPPED PREFETCHES: 8500
STLB PREFETCHES SAME FILL-ORIGIN LEVEL: 0 DIFFERENT FILL-ORIGIN LEVEL: 0
STLB AVERAGE MISS LATENCY: 49.8447 cycles
STLB RQ	ACCESS:    6376084	FORWARD:          0	MERGED:     224817	TO_CACHE:    6151267

STLB Hit, L1D data hit: 0
STLB Hit, L2C data hit: 0
STLB Hit, LLC data hit: 0
STLB Hit, LLC data miss: 0
STLB STLB hints to L2: 0
L1D TOTAL     ACCESS:   60241940  HIT:   54644757  MISS:    5597183  HIT %:    90.7088  MISS %:    9.29117   MPKI: 27.9859
L1D LOAD      ACCESS:   33587076  HIT:   30923522  MISS:    2663554  HIT %:    92.0697  MISS %:    7.93029   MPKI: 13.3178
L1D RFO       ACCESS:   24471149  HIT:   23382546  MISS:    1088603  HIT %:    95.5515  MISS %:    4.44852   MPKI: 5.44301
L1D PREFETCH  ACCESS:    2183715  HIT:     338689  MISS:    1845026  HIT %:    15.5098  MISS %:    84.4902   MPKI: 9.22513
AGUS PREFETCH L1 MISS: 0
L1D PREFETCH  REQUESTED:    5497899  ISSUED:    5497899  USEFUL:     408950  USELESS:    1436150
L1D USEFUL LOAD PREFETCHES:     408950 PREFETCH ISSUED TO LOWER LEVEL:    2052196  ACCURACY: 19.9274
L1D TIMELY PREFETCHES:     408950 LATE PREFETCHES: 206222 DROPPED PREFETCHES: 9535
L1D PREFETCHES SAME FILL-ORIGIN LEVEL: 2052196 DIFFERENT FILL-ORIGIN LEVEL: 0
L1D AVERAGE MISS LATENCY: 1.14378e+07 cycles
L1D RQ	ACCESS:   46887833	FORWARD:          0	MERGED:   12888521	TO_CACHE:   33700531
L1D WQ	ACCESS:   26309150	FORWARD:     298912	MERGED:     172931	TO_CACHE:   26136219
L1D PQ	ACCESS:    2772404	FORWARD:          0	MERGED:      46778	TO_CACHE:    2725495

L1D UNIQUE REGIONS ACCESSED: 0
L1D REGIONS CONFLICTS: 0
L1D Cross Page Prefetch Requests: 68041
L1D Same Page Prefetch Requests: 3363614
L1D ROI Sum of L1D PQ occupancy: 35396375
L1D PREFETCHES PUSHED FROM L2C: 0
L1I TOTAL     ACCESS:   38875739  HIT:   29165481  MISS:    9710258  HIT %:    75.0223  MISS %:    24.9777   MPKI: 48.5513
L1I LOAD      ACCESS:   38875739  HIT:   29165481  MISS:    9710258  HIT %:    75.0223  MISS %:    24.9777   MPKI: 48.5513
L1I PREFETCH  REQUESTED:          0  ISSUED:          0  USEFUL:          0  USELESS:          0
L1I USEFUL LOAD PREFETCHES:          0 PREFETCH ISSUED TO LOWER LEVEL:          0  ACCURACY: -nan
L1I TIMELY PREFETCHES:          0 LATE PREFETCHES: 0 DROPPED PREFETCHES: 0
L1I PREFETCHES SAME FILL-ORIGIN LEVEL: 0 DIFFERENT FILL-ORIGIN LEVEL: 0
L1I AVERAGE MISS LATENCY: 17.6956 cycles
L1I RQ	ACCESS:   57839179	FORWARD:          0	MERGED:   17535044	TO_CACHE:   40304135

BTB TOTAL     ACCESS:   30330111  HIT:   18855292  MISS:   11474819  HIT %:    62.1669  MISS %:    37.8331   MPKI: 57.3741
BTB BRANCH_DIRECT_JUMP	ACCESS:    2183492  HIT:    1381264  MISS:     802228
BTB BRANCH_INDIRECT	ACCESS:   11409987  HIT:    7107186  MISS:    4302801
BTB BRANCH_CONDITIONAL	ACCESS:    8659441  HIT:    7498829  MISS:    1160612
BTB BRANCH_DIRECT_CALL	ACCESS:    3412328  HIT:    1528915  MISS:    1883413
BTB BRANCH_INDIRECT_CALL	ACCESS:     626273  HIT:     246324  MISS:     379949
BTB BRANCH_RETURN	ACCESS:    4038590  HIT:    1092774  MISS:    2945816
BTB BRANCH_OTHER ACCESS:          0  HIT:          0  MISS:          0

L2C TOTAL     ACCESS:   17301962  HIT:   15010181  MISS:    2291781  HIT %:    86.7542  MISS %:    13.2458   MPKI: 11.4589
L2C LOAD      ACCESS:   12167440  HIT:   10661496  MISS:    1505944  HIT %:    87.6232  MISS %:    12.3768   MPKI: 7.52972
L2C DATA LOAD MPKI: 1.71646
L2C INSTRUCTION LOAD MPKI: 5.81325
L2C RFO       ACCESS:    1087653  HIT:     849147  MISS:     238506  HIT %:    78.0715  MISS %:    21.9285   MPKI: 1.19253
L2C PREFETCH  ACCESS:    2051997  HIT:    1565408  MISS:     486589  HIT %:    76.2871  MISS %:    23.7129   MPKI: 2.43295
AGUS PREFETCH L1 MISS: 0
L2C DATA PREFETCH MPKI: 2.43295
L2C INSTRUCTION PREFETCH MPKI: 0
L2C WRITEBACK ACCESS:    1970422  HIT:    1921540  MISS:      48882  HIT %:    97.5192  MISS %:    2.48079   MPKI: 0.24441
L2C LOAD TRANSLATION ACCESS:      10484  HIT:       1916  MISS:       8568  HIT %:    18.2755  MISS %:    81.7245   MPKI: 0.04284
L2C TRANSLATION FROM L1D PREFETCHER ACCESS:      13966  HIT:      10674  MISS:       3292  HIT %:    76.4285  MISS %:    23.5715   MPKI: 0.01646
L2C PREFETCH  REQUESTED:          0  ISSUED:          0  USEFUL:      26933  USELESS:     462986
L2C USEFUL LOAD PREFETCHES:      26933 PREFETCH ISSUED TO LOWER LEVEL:     486589  ACCURACY: 5.53506
L2C TIMELY PREFETCHES:      26933 LATE PREFETCHES: 0 DROPPED PREFETCHES: 0
L2C PREFETCHES SAME FILL-ORIGIN LEVEL: 0 DIFFERENT FILL-ORIGIN LEVEL: 0
L2C AVERAGE MISS LATENCY: 32.6906 cycles
L2C RQ	ACCESS:   13279694	FORWARD:          0	MERGED:          0	TO_CACHE:   13279543
L2C WQ	ACCESS:    1970422	FORWARD:        350	MERGED:          0	TO_CACHE:    1970422
L2C PQ	ACCESS:    2052196	FORWARD:          0	MERGED:          0	TO_CACHE:    2051997

L2C Instructions Evicting Data 499498
L2C Translations Evicting Data 6800
L2C Data Evicting Data 585342
L2C Instructions Evicting Instructions 658186
L2C Translations Evicting Instructions 4864
L2C Data Evicting Instructions 476470
L2C Instructions Evicting Translations 4967
L2C Translations Evicting Translations 196
L2C Data Evicting Translations 6576
L2C Dense regions hint from L2: 0
PSCL5 TOTAL     ACCESS:      18466  HIT:      18466  MISS:          0  HIT %:        100  MISS %:          0   MPKI: 0
PSCL5 LOAD TRANSLATION ACCESS:       9503  HIT:       9503  MISS:          0  HIT %:        100  MISS %:          0   MPKI: 0
PSCL5 TRANSLATION FROM L1D PREFETCHER ACCESS:       8963  HIT:       8963  MISS:          0  HIT %:        100  MISS %:          0   MPKI: 0
PSCL5 PREFETCH  REQUESTED:          0  ISSUED:          0  USEFUL:          0  USELESS:          0
PSCL5 USEFUL LOAD PREFETCHES:          0 PREFETCH ISSUED TO LOWER LEVEL:          0  ACCURACY: -nan
PSCL5 TIMELY PREFETCHES:          0 LATE PREFETCHES: 0 DROPPED PREFETCHES: 0
PSCL5 PREFETCHES SAME FILL-ORIGIN LEVEL: 0 DIFFERENT FILL-ORIGIN LEVEL: 0

PSCL4 TOTAL     ACCESS:      18059  HIT:      18029  MISS:         30  HIT %:    99.8339  MISS %:   0.166122   MPKI: 0.00015
PSCL4 LOAD TRANSLATION ACCESS:       9452  HIT:       9422  MISS:         30  HIT %:    99.6826  MISS %:   0.317393   MPKI: 0.00015
PSCL4 TRANSLATION FROM L1D PREFETCHER ACCESS:       8607  HIT:       8607  MISS:          0  HIT %:        100  MISS %:          0   MPKI: 0
PSCL4 PREFETCH  REQUESTED:          0  ISSUED:          0  USEFUL:          0  USELESS:          0
PSCL4 USEFUL LOAD PREFETCHES:          0 PREFETCH ISSUED TO LOWER LEVEL:          0  ACCURACY: -nan
PSCL4 TIMELY PREFETCHES:          0 LATE PREFETCHES: 0 DROPPED PREFETCHES: 0
PSCL4 PREFETCHES SAME FILL-ORIGIN LEVEL: 0 DIFFERENT FILL-ORIGIN LEVEL: 0

PSCL3 TOTAL     ACCESS:      18161  HIT:      18131  MISS:         30  HIT %:    99.8348  MISS %:   0.165189   MPKI: 0.00015
PSCL3 LOAD TRANSLATION ACCESS:       9488  HIT:       9458  MISS:         30  HIT %:    99.6838  MISS %:   0.316189   MPKI: 0.00015
PSCL3 TRANSLATION FROM L1D PREFETCHER ACCESS:       8673  HIT:       8673  MISS:          0  HIT %:        100  MISS %:          0   MPKI: 0
PSCL3 PREFETCH  REQUESTED:          0  ISSUED:          0  USEFUL:          0  USELESS:          0
PSCL3 USEFUL LOAD PREFETCHES:          0 PREFETCH ISSUED TO LOWER LEVEL:          0  ACCURACY: -nan
PSCL3 TIMELY PREFETCHES:          0 LATE PREFETCHES: 0 DROPPED PREFETCHES: 0
PSCL3 PREFETCHES SAME FILL-ORIGIN LEVEL: 0 DIFFERENT FILL-ORIGIN LEVEL: 0

PSCL2 TOTAL     ACCESS:      14060  HIT:      13116  MISS:        944  HIT %:    93.2859  MISS %:    6.71408   MPKI: 0.00472
PSCL2 LOAD TRANSLATION ACCESS:       9526  HIT:       8582  MISS:        944  HIT %:    90.0903  MISS %:    9.90972   MPKI: 0.00472
PSCL2 TRANSLATION FROM L1D PREFETCHER ACCESS:       4534  HIT:       4534  MISS:          0  HIT %:        100  MISS %:          0   MPKI: 0
PSCL2 PREFETCH  REQUESTED:          0  ISSUED:          0  USEFUL:          0  USELESS:          0
PSCL2 USEFUL LOAD PREFETCHES:          0 PREFETCH ISSUED TO LOWER LEVEL:          0  ACCURACY: -nan
PSCL2 TIMELY PREFETCHES:          0 LATE PREFETCHES: 0 DROPPED PREFETCHES: 0
PSCL2 PREFETCHES SAME FILL-ORIGIN LEVEL: 0 DIFFERENT FILL-ORIGIN LEVEL: 0

LLC TOTAL     ACCESS:    2584111  HIT:    2531470  MISS:      52641  HIT %:    97.9629  MISS %:     2.0371   MPKI: 0.263205
LLC LOAD      ACCESS:    1505944  HIT:    1494056  MISS:      11888  HIT %:    99.2106  MISS %:   0.789405   MPKI: 0.05944
LLC RFO       ACCESS:     238498  HIT:     217967  MISS:      20531  HIT %:    91.3915  MISS %:    8.60846   MPKI: 0.102655
LLC PREFETCH  ACCESS:     486587  HIT:     466824  MISS:      19763  HIT %:    95.9384  MISS %:    4.06156   MPKI: 0.098815
AGUS PREFETCH L1 MISS: 0
LLC WRITEBACK ACCESS:     341222  HIT:     340976  MISS:        246  HIT %:    99.9279  MISS %:  0.0720938   MPKI: 0.00123
LLC LOAD TRANSLATION ACCESS:       8568  HIT:       8394  MISS:        174  HIT %:    97.9692  MISS %:    2.03081   MPKI: 0.00087
LLC TRANSLATION FROM L1D PREFETCHER ACCESS:       3292  HIT:       3253  MISS:         39  HIT %:    98.8153  MISS %:    1.18469   MPKI: 0.000195
LLC PREFETCH  REQUESTED:          0  ISSUED:          0  USEFUL:       2669  USELESS:      16648
LLC USEFUL LOAD PREFETCHES:       2669 PREFETCH ISSUED TO LOWER LEVEL:      19763  ACCURACY: 13.505
LLC TIMELY PREFETCHES:       2669 LATE PREFETCHES: 0 DROPPED PREFETCHES: 0
LLC PREFETCHES SAME FILL-ORIGIN LEVEL: 0 DIFFERENT FILL-ORIGIN LEVEL: 0
LLC AVERAGE MISS LATENCY: 144.977 cycles
LLC RQ	ACCESS:    1756310	FORWARD:          0	MERGED:          0	TO_CACHE:    1756302
LLC WQ	ACCESS:     341222	FORWARD:         10	MERGED:          0	TO_CACHE:     341222
LLC PQ	ACCESS:     486589	FORWARD:          0	MERGED:          0	TO_CACHE:     486587

LLC Dense regions hint to LLC: 0

RAW hits: 1400963
Loads Generated: 48288796
Loads sent to L1D: 46887833
Stores Generated: 26309146
Stores sent to L1D: 26309150
Major fault: 0 Minor fault: 1865
Allocated PAGES: 1865
CPU 0 L1d next line prefetcher final stats

-63,437
-62,474
-61,461
-60,472
-59,481
-58,411
-57,457
-56,488
-55,454
-54,493
-53,480
-52,426
-51,465
-50,471
-49,512
-48,495
-47,432
-46,411
-45,459
-44,480
-43,458
-42,637
-41,592
-40,565
-39,555
-38,632
-37,551
-36,675
-35,603
-34,610
-33,568
-32,706
-31,535
-30,635
-29,625
-28,641
-27,759
-26,672
-25,695
-24,782
-23,778
-22,749
-21,907
-20,790
-19,786
-18,790
-17,889
-16,1011
-15,906
-14,1181
-13,1188
-12,1204
-11,1244
-10,1268
-9,1434
-8,1510
-7,1451
-6,1861
-5,2082
-4,2112
-3,2477
-2,3251
-1,4660
0,5032
1,6505
2,5806
3,5569
4,5215
5,4847
6,4958
7,4450
8,4426
9,4145
10,3832
11,3634
12,3678
13,3313
14,3200
15,3229
16,3130
17,3002
18,2924
19,2656
20,2627
21,2616
22,2433
23,2489
24,2753
25,2479
26,2331
27,2493
28,2305
29,2298
30,2467
31,2286
32,2328
33,2348
34,2317
35,2152
36,2333
37,2157
38,2114
39,2325
40,2207
41,2080
42,2376
43,2016
44,1950
45,2068
46,1851
47,1870
48,2076
49,1898
50,1807
51,2023
52,1868
53,1945
54,2007
55,1874
56,1927
57,1988
58,1777
59,1756
60,1956
61,1729
62,1777
63,1865

DRAM Statistics
 CHANNEL 0
 RQ ROW_BUFFER_HIT:      15524  ROW_BUFFER_MISS:      36857
 DBUS_CONGESTED:         69
 WQ ROW_BUFFER_HIT:       2133  ROW_BUFFER_MISS:      22450  FULL:          0

 AVG_CONGESTED_CYCLE: 5
 All warmup complete: 2
Channel 0 Bank busy for read cycles: 0
Channel 0 Bank busy for write cycles: 0
Channel 0
Rank 0
0banks busy for read cycles: 602177251
0banks busy for write cycles: 9362
1banks busy for read cycles: 2006265
1banks busy for write cycles: 1090090
2banks busy for read cycles: 652267
2banks busy for write cycles: 304636
3banks busy for read cycles: 226406
3banks busy for write cycles: 140444
4banks busy for read cycles: 152512
4banks busy for write cycles: 93760
5banks busy for read cycles: 108044
5banks busy for write cycles: 69888
6banks busy for read cycles: 81610
6banks busy for write cycles: 56016
7banks busy for read cycles: 56746
7banks busy for write cycles: 49206
8banks busy for read cycles: 35022
8banks busy for write cycles: 68226

CPU 0 Branch Prediction Accuracy: 99.8462% MPKI: 0.271815 Average ROB Occupancy at Mispredict: 54.6204
Branch types
NOT_BRANCH: 164663059 82.3315%
BRANCH_DIRECT_JUMP: 2183492 1.09175%
BRANCH_INDIRECT: 11409987 5.70499%
BRANCH_CONDITIONAL: 13666237 6.83312%
BRANCH_DIRECT_CALL: 3412328 1.70616%
BRANCH_INDIRECT_CALL: 626273 0.313136%
BRANCH_RETURN: 4038590 2.0193%
BRANCH_OTHER: 0 0%

DRAM PAGES: 1048576
Allocated PAGES: 1865
