
*** ChampSim Multicore Out-of-Order Simulator ***

Warmup Instructions: 50000000
Simulation Instructions: 200000000
Number of CPUs: 1
LLC sets: 2048
LLC ways: 16
Off-chip DRAM Size: 4096 MB Channels: 1 Width: 64-bit Data Rate: 6400 MT/s
CPU 0 runs traces/spec2k17/srv_76.champsimtrace.xz
.xz
BTB has LRU replacement policy
ITLB has LRU replacement policy
DTLB has LRU replacement policy
STLB has LRU replacement policy
L1I has LRU replacement policy
CPU 0 L2C next line prefetcher
L1D has LRU replacement policy
Initialize SRRIP state for L2C
Initialize DRRIP state for LLC
Heartbeat CPU 0 instructions: 10000002 cycles: 2946931 heartbeat IPC: 3.39336 cumulative IPC: 3.39336 (Simulation time: 0 hr 0 min 38 sec) 
Heartbeat CPU 0 instructions: 20000002 cycles: 5884800 heartbeat IPC: 3.40383 cumulative IPC: 3.39859 (Simulation time: 0 hr 1 min 16 sec) 
Heartbeat CPU 0 instructions: 30000000 cycles: 8830093 heartbeat IPC: 3.39525 cumulative IPC: 3.39747 (Simulation time: 0 hr 1 min 54 sec) 
*** Reached end of trace for Core: 0 Repeating trace: traces/spec2k17/srv_76.champsimtrace.xz
Heartbeat CPU 0 instructions: 40000002 cycles: 11775269 heartbeat IPC: 3.39538 cumulative IPC: 3.39695 (Simulation time: 0 hr 2 min 35 sec) 
Heartbeat CPU 0 instructions: 50000000 cycles: 14712237 heartbeat IPC: 3.40487 cumulative IPC: 3.39853 (Simulation time: 0 hr 3 min 13 sec) 

Warmup complete CPU 0 instructions: 50000004 cycles: 14712238 (Simulation time: 0 hr 3 min 13 sec) 

Heartbeat CPU 0 instructions: 60000001 cycles: 35188676 heartbeat IPC: 0.488366 cumulative IPC: 0.488366 (Simulation time: 0 hr 4 min 24 sec) 
*** Reached end of trace for Core: 0 Repeating trace: traces/spec2k17/srv_76.champsimtrace.xz
Heartbeat CPU 0 instructions: 70000002 cycles: 54823230 heartbeat IPC: 0.509306 cumulative IPC: 0.498616 (Simulation time: 0 hr 5 min 33 sec) 
Heartbeat CPU 0 instructions: 80000001 cycles: 74331605 heartbeat IPC: 0.5126 cumulative IPC: 0.503192 (Simulation time: 0 hr 6 min 42 sec) 
Heartbeat CPU 0 instructions: 90000001 cycles: 93854970 heartbeat IPC: 0.512207 cumulative IPC: 0.505416 (Simulation time: 0 hr 7 min 47 sec) 
*** Reached end of trace for Core: 0 Repeating trace: traces/spec2k17/srv_76.champsimtrace.xz
Heartbeat CPU 0 instructions: 100000000 cycles: 113314457 heartbeat IPC: 0.513888 cumulative IPC: 0.507088 (Simulation time: 0 hr 8 min 55 sec) 
Heartbeat CPU 0 instructions: 110000000 cycles: 132759274 heartbeat IPC: 0.514276 cumulative IPC: 0.508272 (Simulation time: 0 hr 10 min 4 sec) 
Heartbeat CPU 0 instructions: 120000000 cycles: 152182606 heartbeat IPC: 0.514845 cumulative IPC: 0.509201 (Simulation time: 0 hr 11 min 10 sec) 
*** Reached end of trace for Core: 0 Repeating trace: traces/spec2k17/srv_76.champsimtrace.xz
Heartbeat CPU 0 instructions: 130000001 cycles: 171660463 heartbeat IPC: 0.513404 cumulative IPC: 0.509722 (Simulation time: 0 hr 12 min 19 sec) 
Heartbeat CPU 0 instructions: 140000001 cycles: 191031099 heartbeat IPC: 0.516245 cumulative IPC: 0.510439 (Simulation time: 0 hr 13 min 27 sec) 
Heartbeat CPU 0 instructions: 150000001 cycles: 210382904 heartbeat IPC: 0.516748 cumulative IPC: 0.511063 (Simulation time: 0 hr 14 min 36 sec) 
Heartbeat CPU 0 instructions: 160000003 cycles: 229845057 heartbeat IPC: 0.513818 cumulative IPC: 0.511312 (Simulation time: 0 hr 15 min 48 sec) 
*** Reached end of trace for Core: 0 Repeating trace: traces/spec2k17/srv_76.champsimtrace.xz
Heartbeat CPU 0 instructions: 170000000 cycles: 249265257 heartbeat IPC: 0.514928 cumulative IPC: 0.511611 (Simulation time: 0 hr 16 min 56 sec) 
Heartbeat CPU 0 instructions: 180000001 cycles: 268715190 heartbeat IPC: 0.514141 cumulative IPC: 0.511805 (Simulation time: 0 hr 18 min 7 sec) 
Heartbeat CPU 0 instructions: 190000000 cycles: 288183510 heartbeat IPC: 0.513655 cumulative IPC: 0.511937 (Simulation time: 0 hr 19 min 11 sec) 
*** Reached end of trace for Core: 0 Repeating trace: traces/spec2k17/srv_76.champsimtrace.xz
Heartbeat CPU 0 instructions: 200000003 cycles: 307612721 heartbeat IPC: 0.514689 cumulative IPC: 0.512119 (Simulation time: 0 hr 20 min 17 sec) 
Heartbeat CPU 0 instructions: 210000000 cycles: 326957589 heartbeat IPC: 0.516933 cumulative IPC: 0.512418 (Simulation time: 0 hr 21 min 26 sec) 
Heartbeat CPU 0 instructions: 220000000 cycles: 346425009 heartbeat IPC: 0.513679 cumulative IPC: 0.512492 (Simulation time: 0 hr 22 min 34 sec) 
*** Reached end of trace for Core: 0 Repeating trace: traces/spec2k17/srv_76.champsimtrace.xz
Heartbeat CPU 0 instructions: 230000003 cycles: 365879444 heartbeat IPC: 0.514022 cumulative IPC: 0.512576 (Simulation time: 0 hr 23 min 43 sec) 
Heartbeat CPU 0 instructions: 240000000 cycles: 385189414 heartbeat IPC: 0.517867 cumulative IPC: 0.512852 (Simulation time: 0 hr 24 min 49 sec) 
Heartbeat CPU 0 instructions: 250000001 cycles: 404592649 heartbeat IPC: 0.515378 cumulative IPC: 0.512978 (Simulation time: 0 hr 25 min 58 sec) 
Finished CPU 0 instructions: 200000000 cycles: 389880413 cumulative IPC: 0.512978 (Simulation time: 0 hr 25 min 58 sec) 

ChampSim completed all CPUs

Region of Interest Statistics

CPU 0 cumulative IPC: 0.512978 instructions: 200000000 cycles: 389880413
ITLB TOTAL     ACCESS:   33768824  HIT:   32237579  MISS:    1531245  HIT %:    95.4655  MISS %:    4.53449   MPKI: 7.65623
ITLB LOAD TRANSLATION ACCESS:   33768824  HIT:   32237579  MISS:    1531245  HIT %:    95.4655  MISS %:    4.53449   MPKI: 7.65623
ITLB PREFETCH  REQUESTED:          0  ISSUED:          0  USEFUL:          0  USELESS:          0
ITLB USEFUL LOAD PREFETCHES:          0 PREFETCH ISSUED TO LOWER LEVEL:          0  ACCURACY: -nan
ITLB TIMELY PREFETCHES:          0 LATE PREFETCHES: 0 DROPPED PREFETCHES: 0
ITLB PREFETCHES SAME FILL-ORIGIN LEVEL: 0 DIFFERENT FILL-ORIGIN LEVEL: 0
ITLB AVERAGE MISS LATENCY: 9.26665 cycles
ITLB RQ	ACCESS:   40658299	FORWARD:          0	MERGED:    6395146	TO_CACHE:   34263153

DTLB TOTAL     ACCESS:   40016864  HIT:   38488312  MISS:    1528552  HIT %:    96.1802  MISS %:    3.81977   MPKI: 7.64276
DTLB LOAD TRANSLATION ACCESS:   40016864  HIT:   38488312  MISS:    1528552  HIT %:    96.1802  MISS %:    3.81977   MPKI: 7.64276
DTLB PREFETCH  REQUESTED:          0  ISSUED:          0  USEFUL:          0  USELESS:          0
DTLB USEFUL LOAD PREFETCHES:          0 PREFETCH ISSUED TO LOWER LEVEL:          0  ACCURACY: -nan
DTLB TIMELY PREFETCHES:          0 LATE PREFETCHES: 0 DROPPED PREFETCHES: 0
DTLB PREFETCHES SAME FILL-ORIGIN LEVEL: 0 DIFFERENT FILL-ORIGIN LEVEL: 0
DTLB AVERAGE MISS LATENCY: 15.2959 cycles
DTLB RQ	ACCESS:   61122424	FORWARD:          0	MERGED:   20704470	TO_CACHE:   40417954

STLB TOTAL     ACCESS:    5303282  HIT:    5224559  MISS:      78723  HIT %:    98.5156  MISS %:    1.48442   MPKI: 0.393615
STLB LOAD TRANSLATION ACCESS:    3059797  HIT:    2984282  MISS:      75515  HIT %:     97.532  MISS %:    2.46797   MPKI: 0.377575
STLB TRANSLATION FROM L1D PREFETCHER ACCESS:    2243485  HIT:    2240277  MISS:       3208  HIT %:     99.857  MISS %:   0.142992   MPKI: 0.01604
STLB PREFETCH  REQUESTED:          0  ISSUED:          0  USEFUL:       2924  USELESS:        284
STLB USEFUL LOAD PREFETCHES:       2924 PREFETCH ISSUED TO LOWER LEVEL:          0  ACCURACY: inf
STLB TIMELY PREFETCHES:       2924 LATE PREFETCHES: 964 DROPPED PREFETCHES: 8372
STLB PREFETCHES SAME FILL-ORIGIN LEVEL: 0 DIFFERENT FILL-ORIGIN LEVEL: 0
STLB AVERAGE MISS LATENCY: 861163 cycles
STLB RQ	ACCESS:    5967510	FORWARD:          0	MERGED:     652811	TO_CACHE:    5314699

STLB Hit, L1D data hit: 0
STLB Hit, L2C data hit: 0
STLB Hit, LLC data hit: 0
STLB Hit, LLC data miss: 0
STLB STLB hints to L2: 0
L1D TOTAL     ACCESS:   50945261  HIT:   43012081  MISS:    7933180  HIT %:     84.428  MISS %:     15.572   MPKI: 39.6659
L1D LOAD      ACCESS:   26752016  HIT:   24047514  MISS:    2704502  HIT %:    89.8905  MISS %:    10.1095   MPKI: 13.5225
L1D RFO       ACCESS:   22380627  HIT:   18694872  MISS:    3685755  HIT %:    83.5315  MISS %:    16.4685   MPKI: 18.4288
L1D PREFETCH  ACCESS:    1812618  HIT:     269695  MISS:    1542923  HIT %:    14.8788  MISS %:    85.1212   MPKI: 7.71462
AGUS PREFETCH L1 MISS: 0
L1D PREFETCH  REQUESTED:    5977370  ISSUED:    5975260  USEFUL:     515254  USELESS:    1027679
L1D USEFUL LOAD PREFETCHES:     515254 PREFETCH ISSUED TO LOWER LEVEL:    1957606  ACCURACY: 26.3206
L1D TIMELY PREFETCHES:     515254 LATE PREFETCHES: 410411 DROPPED PREFETCHES: 10772
L1D PREFETCHES SAME FILL-ORIGIN LEVEL: 1957606 DIFFERENT FILL-ORIGIN LEVEL: 0
L1D AVERAGE MISS LATENCY: 1.10572e+07 cycles
L1D RQ	ACCESS:   45213390	FORWARD:          0	MERGED:   17831974	TO_CACHE:   27120012
L1D WQ	ACCESS:   34202058	FORWARD:     261769	MERGED:     199646	TO_CACHE:   34002412
L1D PQ	ACCESS:    3067547	FORWARD:          0	MERGED:     159469	TO_CACHE:    2907713

L1D UNIQUE REGIONS ACCESSED: 0
L1D REGIONS CONFLICTS: 0
L1D Cross Page Prefetch Requests: 111853
L1D Same Page Prefetch Requests: 3583442
L1D ROI Sum of L1D PQ occupancy: 43403686
L1D PREFETCHES PUSHED FROM L2C: 0
L1I TOTAL     ACCESS:   38013434  HIT:   28962392  MISS:    9051042  HIT %:    76.1899  MISS %:    23.8101   MPKI: 45.2552
L1I LOAD      ACCESS:   38013434  HIT:   28962392  MISS:    9051042  HIT %:    76.1899  MISS %:    23.8101   MPKI: 45.2552
L1I PREFETCH  REQUESTED:          0  ISSUED:          0  USEFUL:          0  USELESS:          0
L1I USEFUL LOAD PREFETCHES:          0 PREFETCH ISSUED TO LOWER LEVEL:          0  ACCURACY: -nan
L1I TIMELY PREFETCHES:          0 LATE PREFETCHES: 0 DROPPED PREFETCHES: 0
L1I PREFETCHES SAME FILL-ORIGIN LEVEL: 0 DIFFERENT FILL-ORIGIN LEVEL: 0
L1I AVERAGE MISS LATENCY: 16.8855 cycles
L1I RQ	ACCESS:   58938528	FORWARD:          0	MERGED:   18280229	TO_CACHE:   40658299

BTB TOTAL     ACCESS:   25729445  HIT:   24177550  MISS:    1551895  HIT %:    93.9684  MISS %:    6.03159   MPKI: 7.75948
BTB BRANCH_DIRECT_JUMP	ACCESS:    1656284  HIT:    1645281  MISS:      11003
BTB BRANCH_INDIRECT	ACCESS:    9938661  HIT:    9422853  MISS:     515808
BTB BRANCH_CONDITIONAL	ACCESS:    7324845  HIT:    7309493  MISS:      15352
BTB BRANCH_DIRECT_CALL	ACCESS:    2813378  HIT:    2777728  MISS:      35650
BTB BRANCH_INDIRECT_CALL	ACCESS:     591510  HIT:     480327  MISS:     111183
BTB BRANCH_RETURN	ACCESS:    3404767  HIT:    2541868  MISS:     862899
BTB BRANCH_OTHER ACCESS:          0  HIT:          0  MISS:          0

L2C TOTAL     ACCESS:   21476837  HIT:   14196933  MISS:    7279904  HIT %:    66.1035  MISS %:    33.8965   MPKI: 36.3995
L2C LOAD      ACCESS:   11344759  HIT:    9202676  MISS:    2142083  HIT %:    81.1183  MISS %:    18.8817   MPKI: 10.7104
L2C DATA LOAD MPKI: 7.72063
L2C INSTRUCTION LOAD MPKI: 2.98978
L2C RFO       ACCESS:    3681467  HIT:     132702  MISS:    3548765  HIT %:     3.6046  MISS %:    96.3954   MPKI: 17.7438
L2C PREFETCH  ACCESS:    1957601  HIT:     535713  MISS:    1421888  HIT %:    27.3658  MISS %:    72.6342   MPKI: 7.10944
AGUS PREFETCH L1 MISS: 0
L2C DATA PREFETCH MPKI: 7.10944
L2C INSTRUCTION PREFETCH MPKI: 0
L2C WRITEBACK ACCESS:    4389373  HIT:    4268306  MISS:     121067  HIT %:    97.2418  MISS %:    2.75818   MPKI: 0.605335
L2C LOAD TRANSLATION ACCESS:      86504  HIT:      44871  MISS:      41633  HIT %:    51.8716  MISS %:    48.1284   MPKI: 0.208165
L2C TRANSLATION FROM L1D PREFETCHER ACCESS:      17133  HIT:      12665  MISS:       4468  HIT %:    73.9217  MISS %:    26.0783   MPKI: 0.02234
L2C PREFETCH  REQUESTED:          0  ISSUED:          0  USEFUL:      57330  USELESS:    1369348
L2C USEFUL LOAD PREFETCHES:      57330 PREFETCH ISSUED TO LOWER LEVEL:    1421888  ACCURACY: 4.03196
L2C TIMELY PREFETCHES:      57330 LATE PREFETCHES: 0 DROPPED PREFETCHES: 0
L2C PREFETCHES SAME FILL-ORIGIN LEVEL: 0 DIFFERENT FILL-ORIGIN LEVEL: 0
L2C AVERAGE MISS LATENCY: 154.206 cycles
L2C RQ	ACCESS:   15130254	FORWARD:          0	MERGED:          0	TO_CACHE:   15129864
L2C WQ	ACCESS:    4389373	FORWARD:        395	MERGED:          0	TO_CACHE:    4389373
L2C PQ	ACCESS:    1957606	FORWARD:          0	MERGED:          0	TO_CACHE:    1957601

L2C Instructions Evicting Data 549934
L2C Translations Evicting Data 42265
L2C Data Evicting Data 5934713
L2C Instructions Evicting Instructions 44319
L2C Translations Evicting Instructions 3555
L2C Data Evicting Instructions 538533
L2C Instructions Evicting Translations 3704
L2C Translations Evicting Translations 281
L2C Data Evicting Translations 41533
L2C Dense regions hint from L2: 0
PSCL5 TOTAL     ACCESS:      87095  HIT:      87095  MISS:          0  HIT %:        100  MISS %:          0   MPKI: 0
PSCL5 LOAD TRANSLATION ACCESS:      74551  HIT:      74551  MISS:          0  HIT %:        100  MISS %:          0   MPKI: 0
PSCL5 TRANSLATION FROM L1D PREFETCHER ACCESS:      12544  HIT:      12544  MISS:          0  HIT %:        100  MISS %:          0   MPKI: 0
PSCL5 PREFETCH  REQUESTED:          0  ISSUED:          0  USEFUL:          0  USELESS:          0
PSCL5 USEFUL LOAD PREFETCHES:          0 PREFETCH ISSUED TO LOWER LEVEL:          0  ACCURACY: -nan
PSCL5 TIMELY PREFETCHES:          0 LATE PREFETCHES: 0 DROPPED PREFETCHES: 0
PSCL5 PREFETCHES SAME FILL-ORIGIN LEVEL: 0 DIFFERENT FILL-ORIGIN LEVEL: 0

PSCL4 TOTAL     ACCESS:      83396  HIT:      83158  MISS:        238  HIT %:    99.7146  MISS %:   0.285385   MPKI: 0.00119
PSCL4 LOAD TRANSLATION ACCESS:      71948  HIT:      71710  MISS:        238  HIT %:    99.6692  MISS %:   0.330794   MPKI: 0.00119
PSCL4 TRANSLATION FROM L1D PREFETCHER ACCESS:      11448  HIT:      11448  MISS:          0  HIT %:        100  MISS %:          0   MPKI: 0
PSCL4 PREFETCH  REQUESTED:          0  ISSUED:          0  USEFUL:          0  USELESS:          0
PSCL4 USEFUL LOAD PREFETCHES:          0 PREFETCH ISSUED TO LOWER LEVEL:          0  ACCURACY: -nan
PSCL4 TIMELY PREFETCHES:          0 LATE PREFETCHES: 0 DROPPED PREFETCHES: 0
PSCL4 PREFETCHES SAME FILL-ORIGIN LEVEL: 0 DIFFERENT FILL-ORIGIN LEVEL: 0

PSCL3 TOTAL     ACCESS:      82122  HIT:      80829  MISS:       1293  HIT %:    98.4255  MISS %:    1.57449   MPKI: 0.006465
PSCL3 LOAD TRANSLATION ACCESS:      70054  HIT:      68761  MISS:       1293  HIT %:    98.1543  MISS %:    1.84572   MPKI: 0.006465
PSCL3 TRANSLATION FROM L1D PREFETCHER ACCESS:      12068  HIT:      12068  MISS:          0  HIT %:        100  MISS %:          0   MPKI: 0
PSCL3 PREFETCH  REQUESTED:          0  ISSUED:          0  USEFUL:          0  USELESS:          0
PSCL3 USEFUL LOAD PREFETCHES:          0 PREFETCH ISSUED TO LOWER LEVEL:          0  ACCURACY: -nan
PSCL3 TIMELY PREFETCHES:          0 LATE PREFETCHES: 0 DROPPED PREFETCHES: 0
PSCL3 PREFETCHES SAME FILL-ORIGIN LEVEL: 0 DIFFERENT FILL-ORIGIN LEVEL: 0

PSCL2 TOTAL     ACCESS:      83014  HIT:      72415  MISS:      10599  HIT %:    87.2323  MISS %:    12.7677   MPKI: 0.052995
PSCL2 LOAD TRANSLATION ACCESS:      74705  HIT:      64106  MISS:      10599  HIT %:    85.8122  MISS %:    14.1878   MPKI: 0.052995
PSCL2 TRANSLATION FROM L1D PREFETCHER ACCESS:       8309  HIT:       8309  MISS:          0  HIT %:        100  MISS %:          0   MPKI: 0
PSCL2 PREFETCH  REQUESTED:          0  ISSUED:          0  USEFUL:          0  USELESS:          0
PSCL2 USEFUL LOAD PREFETCHES:          0 PREFETCH ISSUED TO LOWER LEVEL:          0  ACCURACY: -nan
PSCL2 TIMELY PREFETCHES:          0 LATE PREFETCHES: 0 DROPPED PREFETCHES: 0
PSCL2 PREFETCHES SAME FILL-ORIGIN LEVEL: 0 DIFFERENT FILL-ORIGIN LEVEL: 0

LLC TOTAL     ACCESS:   11246892  HIT:    4696522  MISS:    6550370  HIT %:    41.7584  MISS %:    58.2416   MPKI: 32.7518
LLC LOAD      ACCESS:    2142082  HIT:    1421033  MISS:     721049  HIT %:    66.3389  MISS %:    33.6611   MPKI: 3.60525
LLC RFO       ACCESS:    3548758  HIT:     948272  MISS:    2600486  HIT %:    26.7212  MISS %:    73.2788   MPKI: 13.0024
LLC PREFETCH  ACCESS:    1421888  HIT:     607750  MISS:     814138  HIT %:    42.7425  MISS %:    57.2575   MPKI: 4.07069
AGUS PREFETCH L1 MISS: 0
LLC WRITEBACK ACCESS:    4088063  HIT:    1709389  MISS:    2378674  HIT %:    41.8142  MISS %:    58.1858   MPKI: 11.8934
LLC LOAD TRANSLATION ACCESS:      41633  HIT:       8476  MISS:      33157  HIT %:    20.3588  MISS %:    79.6412   MPKI: 0.165785
LLC TRANSLATION FROM L1D PREFETCHER ACCESS:       4468  HIT:       1602  MISS:       2866  HIT %:     35.855  MISS %:     64.145   MPKI: 0.01433
LLC PREFETCH  REQUESTED:          0  ISSUED:          0  USEFUL:       5232  USELESS:     815315
LLC USEFUL LOAD PREFETCHES:       5232 PREFETCH ISSUED TO LOWER LEVEL:     814138  ACCURACY: 0.642643
LLC TIMELY PREFETCHES:       5232 LATE PREFETCHES: 0 DROPPED PREFETCHES: 0
LLC PREFETCHES SAME FILL-ORIGIN LEVEL: 0 DIFFERENT FILL-ORIGIN LEVEL: 0
LLC AVERAGE MISS LATENCY: 138.591 cycles
LLC RQ	ACCESS:    5736949	FORWARD:          0	MERGED:          0	TO_CACHE:    5736941
LLC WQ	ACCESS:    4088063	FORWARD:          8	MERGED:          0	TO_CACHE:    4088063
LLC PQ	ACCESS:    1421888	FORWARD:          0	MERGED:          0	TO_CACHE:    1421888

LLC Dense regions hint to LLC: 0

RAW hits: 2410164
Loads Generated: 47623555
Loads sent to L1D: 45213390
Stores Generated: 34202037
Stores sent to L1D: 34202058
Major fault: 0 Minor fault: 9169
Allocated PAGES: 9169
CPU 0 L1d next line prefetcher final stats

-63,1473
-62,1442
-61,1404
-60,1897
-59,1496
-58,1472
-57,1411
-56,1552
-55,1465
-54,1467
-53,1435
-52,1468
-51,1643
-50,1526
-49,1531
-48,1657
-47,1477
-46,1609
-45,1520
-44,1516
-43,1489
-42,1448
-41,1546
-40,1602
-39,1738
-38,1630
-37,1697
-36,1747
-35,1858
-34,1857
-33,1742
-32,2243
-31,1842
-30,2144
-29,1715
-28,1846
-27,1769
-26,1717
-25,1539
-24,1770
-23,1807
-22,1695
-21,1645
-20,1879
-19,1637
-18,1644
-17,1562
-16,1939
-15,1735
-14,1906
-13,1598
-12,1550
-11,1711
-10,1343
-9,1502
-8,1771
-7,1496
-6,1893
-5,1837
-4,1971
-3,2016
-2,2480
-1,3722
0,5261
1,12246
2,11291
3,10583
4,10648
5,9956
6,9936
7,9379
8,9957
9,9229
10,8353
11,8696
12,8758
13,8313
14,8486
15,8539
16,9624
17,8684
18,7719
19,8261
20,8081
21,7691
22,7397
23,7719
24,7950
25,7483
26,6807
27,6559
28,6929
29,6630
30,6706
31,6711
32,7521
33,6530
34,6348
35,6338
36,6492
37,6075
38,6052
39,6189
40,6683
41,6081
42,5863
43,5976
44,5996
45,5800
46,5807
47,5901
48,6477
49,5809
50,5603
51,5571
52,5623
53,5358
54,5388
55,5593
56,5863
57,5443
58,5278
59,5243
60,5862
61,5257
62,5255
63,5380

DRAM Statistics
 CHANNEL 0
 RQ ROW_BUFFER_HIT:    1932396  ROW_BUFFER_MISS:    2238939
 DBUS_CONGESTED:       2373
 WQ ROW_BUFFER_HIT:     534019  ROW_BUFFER_MISS:    2149584  FULL:      37872

 AVG_CONGESTED_CYCLE: 3
 All warmup complete: 2
Channel 0 Bank busy for read cycles: 0
Channel 0 Bank busy for write cycles: 0
Channel 0
Rank 0
0banks busy for read cycles: 155170014
0banks busy for write cycles: 233817
1banks busy for read cycles: 43637253
1banks busy for write cycles: 29461708
2banks busy for read cycles: 20854847
2banks busy for write cycles: 14610959
3banks busy for read cycles: 17271679
3banks busy for write cycles: 8146527
4banks busy for read cycles: 6553386
4banks busy for write cycles: 5409350
5banks busy for read cycles: 5392456
5banks busy for write cycles: 4186483
6banks busy for read cycles: 6170703
6banks busy for write cycles: 3921194
7banks busy for read cycles: 9059178
7banks busy for write cycles: 6386778
8banks busy for read cycles: 18583761
8banks busy for write cycles: 34830321

CPU 0 Branch Prediction Accuracy: 99.9457% MPKI: 0.083 Average ROB Occupancy at Mispredict: 121.514
Branch types
NOT_BRANCH: 169416916 84.7085%
BRANCH_DIRECT_JUMP: 1656284 0.828142%
BRANCH_INDIRECT: 9938661 4.96933%
BRANCH_CONDITIONAL: 12178317 6.08916%
BRANCH_DIRECT_CALL: 2813378 1.40669%
BRANCH_INDIRECT_CALL: 591510 0.295755%
BRANCH_RETURN: 3404767 1.70238%
BRANCH_OTHER: 0 0%

DRAM PAGES: 1048576
Allocated PAGES: 9169
