
*** ChampSim Multicore Out-of-Order Simulator ***

Warmup Instructions: 50000000
Simulation Instructions: 200000000
Number of CPUs: 1
LLC sets: 2048
LLC ways: 16
Off-chip DRAM Size: 4096 MB Channels: 1 Width: 64-bit Data Rate: 6400 MT/s
CPU 0 runs traces/spec2k17/srv_52.champsimtrace.xz
.xz
BTB has LRU replacement policy
ITLB has LRU replacement policy
DTLB has LRU replacement policy
STLB has LRU replacement policy
L1I has LRU replacement policy
CPU 0 L2C next line prefetcher
L1D has LRU replacement policy
Initialize SRRIP state for L2C
Initialize DRRIP state for LLC
Heartbeat CPU 0 instructions: 10000000 cycles: 2957088 heartbeat IPC: 3.38171 cumulative IPC: 3.38171 (Simulation time: 0 hr 0 min 33 sec) 
Heartbeat CPU 0 instructions: 20000003 cycles: 5908284 heartbeat IPC: 3.38846 cumulative IPC: 3.38508 (Simulation time: 0 hr 1 min 7 sec) 
Heartbeat CPU 0 instructions: 30000001 cycles: 8851644 heartbeat IPC: 3.39748 cumulative IPC: 3.3892 (Simulation time: 0 hr 1 min 42 sec) 
*** Reached end of trace for Core: 0 Repeating trace: traces/spec2k17/srv_52.champsimtrace.xz
Heartbeat CPU 0 instructions: 40000001 cycles: 11803080 heartbeat IPC: 3.38818 cumulative IPC: 3.38895 (Simulation time: 0 hr 2 min 17 sec) 
Heartbeat CPU 0 instructions: 50000001 cycles: 14754620 heartbeat IPC: 3.38806 cumulative IPC: 3.38877 (Simulation time: 0 hr 2 min 51 sec) 

Warmup complete CPU 0 instructions: 50000001 cycles: 14754620 (Simulation time: 0 hr 2 min 51 sec) 

Heartbeat CPU 0 instructions: 60000000 cycles: 48389963 heartbeat IPC: 0.297306 cumulative IPC: 0.297306 (Simulation time: 0 hr 3 min 51 sec) 
*** Reached end of trace for Core: 0 Repeating trace: traces/spec2k17/srv_52.champsimtrace.xz
Heartbeat CPU 0 instructions: 70000000 cycles: 81648898 heartbeat IPC: 0.300671 cumulative IPC: 0.298979 (Simulation time: 0 hr 4 min 49 sec) 
Heartbeat CPU 0 instructions: 80000000 cycles: 116629858 heartbeat IPC: 0.28587 cumulative IPC: 0.294478 (Simulation time: 0 hr 5 min 45 sec) 
Heartbeat CPU 0 instructions: 90000000 cycles: 150172219 heartbeat IPC: 0.29813 cumulative IPC: 0.295383 (Simulation time: 0 hr 6 min 37 sec) 
*** Reached end of trace for Core: 0 Repeating trace: traces/spec2k17/srv_52.champsimtrace.xz
Heartbeat CPU 0 instructions: 100000000 cycles: 183556542 heartbeat IPC: 0.299542 cumulative IPC: 0.296205 (Simulation time: 0 hr 7 min 37 sec) 
Heartbeat CPU 0 instructions: 110000000 cycles: 217735980 heartbeat IPC: 0.292574 cumulative IPC: 0.295594 (Simulation time: 0 hr 8 min 35 sec) 
Heartbeat CPU 0 instructions: 120000000 cycles: 251822317 heartbeat IPC: 0.293373 cumulative IPC: 0.295274 (Simulation time: 0 hr 9 min 34 sec) 
*** Reached end of trace for Core: 0 Repeating trace: traces/spec2k17/srv_52.champsimtrace.xz
Heartbeat CPU 0 instructions: 130000003 cycles: 284975352 heartbeat IPC: 0.301632 cumulative IPC: 0.296054 (Simulation time: 0 hr 10 min 31 sec) 
Heartbeat CPU 0 instructions: 140000000 cycles: 319325506 heartbeat IPC: 0.291119 cumulative IPC: 0.295498 (Simulation time: 0 hr 11 min 26 sec) 
Heartbeat CPU 0 instructions: 150000000 cycles: 353006548 heartbeat IPC: 0.296903 cumulative IPC: 0.295638 (Simulation time: 0 hr 12 min 23 sec) 
*** Reached end of trace for Core: 0 Repeating trace: traces/spec2k17/srv_52.champsimtrace.xz
Heartbeat CPU 0 instructions: 160000000 cycles: 386127191 heartbeat IPC: 0.301926 cumulative IPC: 0.296198 (Simulation time: 0 hr 13 min 20 sec) 
Heartbeat CPU 0 instructions: 170000000 cycles: 420728776 heartbeat IPC: 0.289004 cumulative IPC: 0.295585 (Simulation time: 0 hr 14 min 18 sec) 
Heartbeat CPU 0 instructions: 180000000 cycles: 454217665 heartbeat IPC: 0.298607 cumulative IPC: 0.295816 (Simulation time: 0 hr 15 min 12 sec) 
*** Reached end of trace for Core: 0 Repeating trace: traces/spec2k17/srv_52.champsimtrace.xz
Heartbeat CPU 0 instructions: 190000001 cycles: 487608002 heartbeat IPC: 0.299488 cumulative IPC: 0.296075 (Simulation time: 0 hr 16 min 9 sec) 
Heartbeat CPU 0 instructions: 200000001 cycles: 521989965 heartbeat IPC: 0.29085 cumulative IPC: 0.295721 (Simulation time: 0 hr 17 min 5 sec) 
Heartbeat CPU 0 instructions: 210000003 cycles: 555883702 heartbeat IPC: 0.29504 cumulative IPC: 0.295678 (Simulation time: 0 hr 18 min 1 sec) 
*** Reached end of trace for Core: 0 Repeating trace: traces/spec2k17/srv_52.champsimtrace.xz
Heartbeat CPU 0 instructions: 220000000 cycles: 589406942 heartbeat IPC: 0.2983 cumulative IPC: 0.295831 (Simulation time: 0 hr 18 min 59 sec) 
Heartbeat CPU 0 instructions: 230000001 cycles: 623490096 heartbeat IPC: 0.2934 cumulative IPC: 0.295695 (Simulation time: 0 hr 19 min 55 sec) 
Heartbeat CPU 0 instructions: 240000000 cycles: 657193133 heartbeat IPC: 0.296709 cumulative IPC: 0.295748 (Simulation time: 0 hr 20 min 52 sec) 
*** Reached end of trace for Core: 0 Repeating trace: traces/spec2k17/srv_52.champsimtrace.xz
Heartbeat CPU 0 instructions: 250000000 cycles: 690917617 heartbeat IPC: 0.29652 cumulative IPC: 0.295787 (Simulation time: 0 hr 21 min 58 sec) 
Finished CPU 0 instructions: 200000003 cycles: 676162998 cumulative IPC: 0.295787 (Simulation time: 0 hr 21 min 58 sec) 

ChampSim completed all CPUs

Region of Interest Statistics

CPU 0 cumulative IPC: 0.295787 instructions: 200000003 cycles: 676162998
ITLB TOTAL     ACCESS:   34836217  HIT:   33195128  MISS:    1641089  HIT %:    95.2891  MISS %:    4.71087   MPKI: 8.20544
ITLB LOAD TRANSLATION ACCESS:   34836217  HIT:   33195128  MISS:    1641089  HIT %:    95.2891  MISS %:    4.71087   MPKI: 8.20544
ITLB PREFETCH  REQUESTED:          0  ISSUED:          0  USEFUL:          0  USELESS:          0
ITLB USEFUL LOAD PREFETCHES:          0 PREFETCH ISSUED TO LOWER LEVEL:          0  ACCURACY: -nan
ITLB TIMELY PREFETCHES:          0 LATE PREFETCHES: 0 DROPPED PREFETCHES: 0
ITLB PREFETCHES SAME FILL-ORIGIN LEVEL: 0 DIFFERENT FILL-ORIGIN LEVEL: 0
ITLB AVERAGE MISS LATENCY: 10.2413 cycles
ITLB RQ	ACCESS:   41094536	FORWARD:          0	MERGED:    5805251	TO_CACHE:   35289285

DTLB TOTAL     ACCESS:   43565141  HIT:   41875808  MISS:    1689333  HIT %:    96.1223  MISS %:    3.87772   MPKI: 8.44666
DTLB LOAD TRANSLATION ACCESS:   43565141  HIT:   41875808  MISS:    1689333  HIT %:    96.1223  MISS %:    3.87772   MPKI: 8.44666
DTLB PREFETCH  REQUESTED:          0  ISSUED:          0  USEFUL:          0  USELESS:          0
DTLB USEFUL LOAD PREFETCHES:          0 PREFETCH ISSUED TO LOWER LEVEL:          0  ACCURACY: -nan
DTLB TIMELY PREFETCHES:          0 LATE PREFETCHES: 0 DROPPED PREFETCHES: 0
DTLB PREFETCHES SAME FILL-ORIGIN LEVEL: 0 DIFFERENT FILL-ORIGIN LEVEL: 0
DTLB AVERAGE MISS LATENCY: 13.4499 cycles
DTLB RQ	ACCESS:   58972000	FORWARD:          0	MERGED:   15294394	TO_CACHE:   43677606

STLB TOTAL     ACCESS:    5913923  HIT:    5767872  MISS:     146051  HIT %:    97.5304  MISS %:    2.46961   MPKI: 0.730255
STLB LOAD TRANSLATION ACCESS:    3330422  HIT:    3186893  MISS:     143529  HIT %:    95.6904  MISS %:    4.30963   MPKI: 0.717645
STLB TRANSLATION FROM L1D PREFETCHER ACCESS:    2583501  HIT:    2580979  MISS:       2522  HIT %:    99.9024  MISS %:  0.0976195   MPKI: 0.01261
STLB PREFETCH  REQUESTED:          0  ISSUED:          0  USEFUL:       2043  USELESS:        470
STLB USEFUL LOAD PREFETCHES:       2043 PREFETCH ISSUED TO LOWER LEVEL:          0  ACCURACY: inf
STLB TIMELY PREFETCHES:       2043 LATE PREFETCHES: 152 DROPPED PREFETCHES: 16790
STLB PREFETCHES SAME FILL-ORIGIN LEVEL: 0 DIFFERENT FILL-ORIGIN LEVEL: 0
STLB AVERAGE MISS LATENCY: 29466.7 cycles
STLB RQ	ACCESS:    6159596	FORWARD:          0	MERGED:     227157	TO_CACHE:    5932439

STLB Hit, L1D data hit: 0
STLB Hit, L2C data hit: 0
STLB Hit, LLC data hit: 0
STLB Hit, LLC data miss: 0
STLB STLB hints to L2: 0
L1D TOTAL     ACCESS:   59655202  HIT:   53722194  MISS:    5933008  HIT %:    90.0545  MISS %:     9.9455   MPKI: 29.665
L1D LOAD      ACCESS:   35404512  HIT:   32686133  MISS:    2718379  HIT %:    92.3219  MISS %:    7.67806   MPKI: 13.5919
L1D RFO       ACCESS:   21721215  HIT:   20557832  MISS:    1163383  HIT %:     94.644  MISS %:    5.35598   MPKI: 5.81691
L1D PREFETCH  ACCESS:    2529475  HIT:     478229  MISS:    2051246  HIT %:    18.9063  MISS %:    81.0937   MPKI: 10.2562
AGUS PREFETCH L1 MISS: 0
L1D PREFETCH  REQUESTED:    5707204  ISSUED:    5707204  USEFUL:     455395  USELESS:    1596002
L1D USEFUL LOAD PREFETCHES:     455395 PREFETCH ISSUED TO LOWER LEVEL:    2094950  ACCURACY: 21.7378
L1D TIMELY PREFETCHES:     455395 LATE PREFETCHES: 39896 DROPPED PREFETCHES: 18739
L1D PREFETCHES SAME FILL-ORIGIN LEVEL: 2094950 DIFFERENT FILL-ORIGIN LEVEL: 0
L1D AVERAGE MISS LATENCY: 2.57099e+06 cycles
L1D RQ	ACCESS:   45984278	FORWARD:          0	MERGED:   10230928	TO_CACHE:   35566566
L1D WQ	ACCESS:   23620808	FORWARD:     188264	MERGED:     215374	TO_CACHE:   23405434
L1D PQ	ACCESS:    2878030	FORWARD:          0	MERGED:      47376	TO_CACHE:    2829174

L1D UNIQUE REGIONS ACCESSED: 0
L1D REGIONS CONFLICTS: 0
L1D Cross Page Prefetch Requests: 111453
L1D Same Page Prefetch Requests: 3476759
L1D ROI Sum of L1D PQ occupancy: 37787264
L1D PREFETCHES PUSHED FROM L2C: 0
L1I TOTAL     ACCESS:   39832199  HIT:   31332441  MISS:    8499758  HIT %:    78.6611  MISS %:    21.3389   MPKI: 42.4988
L1I LOAD      ACCESS:   39832199  HIT:   31332441  MISS:    8499758  HIT %:    78.6611  MISS %:    21.3389   MPKI: 42.4988
L1I PREFETCH  REQUESTED:          0  ISSUED:          0  USEFUL:          0  USELESS:          0
L1I USEFUL LOAD PREFETCHES:          0 PREFETCH ISSUED TO LOWER LEVEL:          0  ACCURACY: -nan
L1I TIMELY PREFETCHES:          0 LATE PREFETCHES: 0 DROPPED PREFETCHES: 0
L1I PREFETCHES SAME FILL-ORIGIN LEVEL: 0 DIFFERENT FILL-ORIGIN LEVEL: 0
L1I AVERAGE MISS LATENCY: 23.6497 cycles
L1I RQ	ACCESS:   60227967	FORWARD:          0	MERGED:   19133431	TO_CACHE:   41094536

BTB TOTAL     ACCESS:   30246495  HIT:   19435977  MISS:   10810518  HIT %:    64.2586  MISS %:    35.7414   MPKI: 54.0526
BTB BRANCH_DIRECT_JUMP	ACCESS:    1982982  HIT:    1218303  MISS:     764679
BTB BRANCH_INDIRECT	ACCESS:   12253769  HIT:    7844105  MISS:    4409664
BTB BRANCH_CONDITIONAL	ACCESS:    7055935  HIT:    6130160  MISS:     925775
BTB BRANCH_DIRECT_CALL	ACCESS:    3467834  HIT:    2019941  MISS:    1447893
BTB BRANCH_INDIRECT_CALL	ACCESS:    1009127  HIT:     529624  MISS:     479503
BTB BRANCH_RETURN	ACCESS:    4476848  HIT:    1693844  MISS:    2783004
BTB BRANCH_OTHER ACCESS:          0  HIT:          0  MISS:          0

L2C TOTAL     ACCESS:   16897175  HIT:   11341317  MISS:    5555858  HIT %:    67.1196  MISS %:    32.8804   MPKI: 27.7793
L2C LOAD      ACCESS:   11178198  HIT:    7509591  MISS:    3668607  HIT %:    67.1807  MISS %:    32.8193   MPKI: 18.343
L2C DATA LOAD MPKI: 5.06933
L2C INSTRUCTION LOAD MPKI: 13.2737
L2C RFO       ACCESS:    1159547  HIT:     506539  MISS:     653008  HIT %:    43.6842  MISS %:    56.3158   MPKI: 3.26504
L2C PREFETCH  ACCESS:    2094949  HIT:    1107246  MISS:     987703  HIT %:    52.8531  MISS %:    47.1469   MPKI: 4.93851
AGUS PREFETCH L1 MISS: 0
L2C DATA PREFETCH MPKI: 4.93851
L2C INSTRUCTION PREFETCH MPKI: 0
L2C WRITEBACK ACCESS:    2216061  HIT:    2100499  MISS:     115562  HIT %:    94.7853  MISS %:    5.21475   MPKI: 0.57781
L2C LOAD TRANSLATION ACCESS:     220109  HIT:      96721  MISS:     123388  HIT %:    43.9423  MISS %:    56.0577   MPKI: 0.61694
L2C TRANSLATION FROM L1D PREFETCHER ACCESS:      28311  HIT:      20721  MISS:       7590  HIT %:    73.1906  MISS %:    26.8094   MPKI: 0.03795
L2C PREFETCH  REQUESTED:          0  ISSUED:          0  USEFUL:      71535  USELESS:     923809
L2C USEFUL LOAD PREFETCHES:      71535 PREFETCH ISSUED TO LOWER LEVEL:     987703  ACCURACY: 7.24256
L2C TIMELY PREFETCHES:      71535 LATE PREFETCHES: 0 DROPPED PREFETCHES: 0
L2C PREFETCHES SAME FILL-ORIGIN LEVEL: 0 DIFFERENT FILL-ORIGIN LEVEL: 0
L2C AVERAGE MISS LATENCY: 47.4135 cycles
L2C RQ	ACCESS:   12586252	FORWARD:          0	MERGED:          0	TO_CACHE:   12586180
L2C WQ	ACCESS:    2216063	FORWARD:         73	MERGED:          0	TO_CACHE:    2216063
L2C PQ	ACCESS:    2094950	FORWARD:          0	MERGED:          0	TO_CACHE:    2094949

L2C Instructions Evicting Data 1199994
L2C Translations Evicting Data 73394
L2C Data Evicting Data 1435227
L2C Instructions Evicting Instructions 1402299
L2C Translations Evicting Instructions 52852
L2C Data Evicting Instructions 1148033
L2C Instructions Evicting Translations 52448
L2C Translations Evicting Translations 4732
L2C Data Evicting Translations 71317
L2C Dense regions hint from L2: 0
PSCL5 TOTAL     ACCESS:     162841  HIT:     162841  MISS:          0  HIT %:        100  MISS %:          0   MPKI: 0
PSCL5 LOAD TRANSLATION ACCESS:     143377  HIT:     143377  MISS:          0  HIT %:        100  MISS %:          0   MPKI: 0
PSCL5 TRANSLATION FROM L1D PREFETCHER ACCESS:      19464  HIT:      19464  MISS:          0  HIT %:        100  MISS %:          0   MPKI: 0
PSCL5 PREFETCH  REQUESTED:          0  ISSUED:          0  USEFUL:          0  USELESS:          0
PSCL5 USEFUL LOAD PREFETCHES:          0 PREFETCH ISSUED TO LOWER LEVEL:          0  ACCURACY: -nan
PSCL5 TIMELY PREFETCHES:          0 LATE PREFETCHES: 0 DROPPED PREFETCHES: 0
PSCL5 PREFETCHES SAME FILL-ORIGIN LEVEL: 0 DIFFERENT FILL-ORIGIN LEVEL: 0

PSCL4 TOTAL     ACCESS:     158744  HIT:     157398  MISS:       1346  HIT %:    99.1521  MISS %:   0.847906   MPKI: 0.00673
PSCL4 LOAD TRANSLATION ACCESS:     139941  HIT:     138595  MISS:       1346  HIT %:    99.0382  MISS %:   0.961834   MPKI: 0.00673
PSCL4 TRANSLATION FROM L1D PREFETCHER ACCESS:      18803  HIT:      18803  MISS:          0  HIT %:        100  MISS %:          0   MPKI: 0
PSCL4 PREFETCH  REQUESTED:          0  ISSUED:          0  USEFUL:          0  USELESS:          0
PSCL4 USEFUL LOAD PREFETCHES:          0 PREFETCH ISSUED TO LOWER LEVEL:          0  ACCURACY: -nan
PSCL4 TIMELY PREFETCHES:          0 LATE PREFETCHES: 0 DROPPED PREFETCHES: 0
PSCL4 PREFETCHES SAME FILL-ORIGIN LEVEL: 0 DIFFERENT FILL-ORIGIN LEVEL: 0

PSCL3 TOTAL     ACCESS:     148440  HIT:     129247  MISS:      19193  HIT %:    87.0702  MISS %:    12.9298   MPKI: 0.095965
PSCL3 LOAD TRANSLATION ACCESS:     131789  HIT:     112596  MISS:      19193  HIT %:    85.4366  MISS %:    14.5634   MPKI: 0.095965
PSCL3 TRANSLATION FROM L1D PREFETCHER ACCESS:      16651  HIT:      16651  MISS:          0  HIT %:        100  MISS %:          0   MPKI: 0
PSCL3 PREFETCH  REQUESTED:          0  ISSUED:          0  USEFUL:          0  USELESS:          0
PSCL3 USEFUL LOAD PREFETCHES:          0 PREFETCH ISSUED TO LOWER LEVEL:          0  ACCURACY: -nan
PSCL3 TIMELY PREFETCHES:          0 LATE PREFETCHES: 0 DROPPED PREFETCHES: 0
PSCL3 PREFETCHES SAME FILL-ORIGIN LEVEL: 0 DIFFERENT FILL-ORIGIN LEVEL: 0

PSCL2 TOTAL     ACCESS:     155641  HIT:      98561  MISS:      57080  HIT %:    63.3259  MISS %:    36.6741   MPKI: 0.2854
PSCL2 LOAD TRANSLATION ACCESS:     144031  HIT:      86951  MISS:      57080  HIT %:    60.3696  MISS %:    39.6304   MPKI: 0.2854
PSCL2 TRANSLATION FROM L1D PREFETCHER ACCESS:      11610  HIT:      11610  MISS:          0  HIT %:        100  MISS %:          0   MPKI: 0
PSCL2 PREFETCH  REQUESTED:          0  ISSUED:          0  USEFUL:          0  USELESS:          0
PSCL2 USEFUL LOAD PREFETCHES:          0 PREFETCH ISSUED TO LOWER LEVEL:          0  ACCURACY: -nan
PSCL2 TIMELY PREFETCHES:          0 LATE PREFETCHES: 0 DROPPED PREFETCHES: 0
PSCL2 PREFETCHES SAME FILL-ORIGIN LEVEL: 0 DIFFERENT FILL-ORIGIN LEVEL: 0

LLC TOTAL     ACCESS:    6598213  HIT:    6070581  MISS:     527632  HIT %:    92.0034  MISS %:    7.99659   MPKI: 2.63816
LLC LOAD      ACCESS:    3668607  HIT:    3494148  MISS:     174459  HIT %:    95.2445  MISS %:    4.75546   MPKI: 0.872295
LLC RFO       ACCESS:     652981  HIT:     481376  MISS:     171605  HIT %:    73.7198  MISS %:    26.2802   MPKI: 0.858025
LLC PREFETCH  ACCESS:     987697  HIT:     821460  MISS:     166237  HIT %:    83.1692  MISS %:    16.8308   MPKI: 0.831185
AGUS PREFETCH L1 MISS: 0
LLC WRITEBACK ACCESS:    1157950  HIT:    1155625  MISS:       2325  HIT %:    99.7992  MISS %:   0.200786   MPKI: 0.011625
LLC LOAD TRANSLATION ACCESS:     123388  HIT:     111047  MISS:      12341  HIT %:    89.9982  MISS %:    10.0018   MPKI: 0.061705
LLC TRANSLATION FROM L1D PREFETCHER ACCESS:       7590  HIT:       6925  MISS:        665  HIT %:    91.2385  MISS %:    8.76153   MPKI: 0.003325
LLC PREFETCH  REQUESTED:          0  ISSUED:          0  USEFUL:      20145  USELESS:     147299
LLC USEFUL LOAD PREFETCHES:      20145 PREFETCH ISSUED TO LOWER LEVEL:     166237  ACCURACY: 12.1182
LLC TIMELY PREFETCHES:      20145 LATE PREFETCHES: 0 DROPPED PREFETCHES: 0
LLC PREFETCHES SAME FILL-ORIGIN LEVEL: 0 DIFFERENT FILL-ORIGIN LEVEL: 0
LLC AVERAGE MISS LATENCY: 189.928 cycles
LLC RQ	ACCESS:    4452602	FORWARD:          0	MERGED:          0	TO_CACHE:    4452575
LLC WQ	ACCESS:    1157951	FORWARD:         33	MERGED:          0	TO_CACHE:    1157951
LLC PQ	ACCESS:     987703	FORWARD:          0	MERGED:          0	TO_CACHE:     987697

LLC Dense regions hint to LLC: 0

RAW hits: 1990623
Loads Generated: 47974901
Loads sent to L1D: 45984278
Stores Generated: 23620827
Stores sent to L1D: 23620808
Major fault: 0 Minor fault: 5016
Allocated PAGES: 5016
CPU 0 L1d next line prefetcher final stats

-63,1012
-62,935
-61,976
-60,865
-59,815
-58,869
-57,857
-56,820
-55,840
-54,932
-53,957
-52,1011
-51,864
-50,900
-49,969
-48,925
-47,780
-46,1044
-45,958
-44,986
-43,1103
-42,1153
-41,1099
-40,1089
-39,1099
-38,1067
-37,1042
-36,1125
-35,1180
-34,1121
-33,1058
-32,1222
-31,1182
-30,1187
-29,1275
-28,1140
-27,1337
-26,1317
-25,1204
-24,1413
-23,1230
-22,1216
-21,1374
-20,1285
-19,1424
-18,1377
-17,1475
-16,1440
-15,1700
-14,1490
-13,1745
-12,1823
-11,1800
-10,1766
-9,2007
-8,2059
-7,2070
-6,2253
-5,2044
-4,2415
-3,2853
-2,3048
-1,4170
0,3784
1,4546
2,4242
3,3967
4,3823
5,3209
6,3222
7,2511
8,2607
9,2582
10,2433
11,2382
12,2484
13,2063
14,2098
15,2124
16,2156
17,2178
18,1998
19,1921
20,2066
21,1748
22,1832
23,1793
24,1943
25,2012
26,1882
27,1681
28,1847
29,1765
30,1646
31,1740
32,1518
33,1743
34,1718
35,1715
36,1613
37,1599
38,1542
39,1585
40,1504
41,1435
42,1443
43,1471
44,1399
45,1410
46,1405
47,1121
48,1319
49,1236
50,1228
51,1227
52,1457
53,1215
54,1271
55,1356
56,1246
57,1283
58,1358
59,1122
60,1322
61,1342
62,1144
63,1224

DRAM Statistics
 CHANNEL 0
 RQ ROW_BUFFER_HIT:     112787  ROW_BUFFER_MISS:     412518
 DBUS_CONGESTED:        181
 WQ ROW_BUFFER_HIT:      32815  ROW_BUFFER_MISS:     265328  FULL:          0

 AVG_CONGESTED_CYCLE: 4
 All warmup complete: 2
Channel 0 Bank busy for read cycles: 0
Channel 0 Bank busy for write cycles: 0
Channel 0
Rank 0
0banks busy for read cycles: 611821039
0banks busy for write cycles: 118729
1banks busy for read cycles: 23461263
1banks busy for write cycles: 14746929
2banks busy for read cycles: 10481642
2banks busy for write cycles: 5505285
3banks busy for read cycles: 1965312
3banks busy for write cycles: 1999644
4banks busy for read cycles: 749067
4banks busy for write cycles: 883469
5banks busy for read cycles: 173926
5banks busy for write cycles: 399563
6banks busy for read cycles: 190406
6banks busy for write cycles: 221413
7banks busy for read cycles: 208326
7banks busy for write cycles: 211319
8banks busy for read cycles: 1367772
8banks busy for write cycles: 1657895

CPU 0 Branch Prediction Accuracy: 99.8298% MPKI: 0.297015 Average ROB Occupancy at Mispredict: 20.9976
Branch types
NOT_BRANCH: 165095763 82.5479%
BRANCH_DIRECT_JUMP: 1982982 0.991491%
BRANCH_INDIRECT: 12253769 6.12688%
BRANCH_CONDITIONAL: 11713939 5.85697%
BRANCH_DIRECT_CALL: 3467834 1.73392%
BRANCH_INDIRECT_CALL: 1009127 0.504563%
BRANCH_RETURN: 4476848 2.23842%
BRANCH_OTHER: 0 0%

DRAM PAGES: 1048576
Allocated PAGES: 5016
