
*** ChampSim Multicore Out-of-Order Simulator ***

Warmup Instructions: 50000000
Simulation Instructions: 200000000
Number of CPUs: 1
LLC sets: 2048
LLC ways: 16
Off-chip DRAM Size: 4096 MB Channels: 1 Width: 64-bit Data Rate: 6400 MT/s
CPU 0 runs traces/spec2k17/srv_47.champsimtrace.xz
.xz
BTB has LRU replacement policy
ITLB has LRU replacement policy
DTLB has LRU replacement policy
STLB has LRU replacement policy
L1I has LRU replacement policy
CPU 0 L2C next line prefetcher
L1D has LRU replacement policy
Initialize SRRIP state for L2C
Initialize DRRIP state for LLC
Heartbeat CPU 0 instructions: 10000000 cycles: 2955434 heartbeat IPC: 3.3836 cumulative IPC: 3.3836 (Simulation time: 0 hr 0 min 41 sec) 
Heartbeat CPU 0 instructions: 20000002 cycles: 5924334 heartbeat IPC: 3.36825 cumulative IPC: 3.37591 (Simulation time: 0 hr 1 min 19 sec) 
Heartbeat CPU 0 instructions: 30000001 cycles: 8878672 heartbeat IPC: 3.38485 cumulative IPC: 3.37888 (Simulation time: 0 hr 1 min 59 sec) 
*** Reached end of trace for Core: 0 Repeating trace: traces/spec2k17/srv_47.champsimtrace.xz
Heartbeat CPU 0 instructions: 40000000 cycles: 11826045 heartbeat IPC: 3.39285 cumulative IPC: 3.38236 (Simulation time: 0 hr 2 min 40 sec) 
Heartbeat CPU 0 instructions: 50000000 cycles: 14797890 heartbeat IPC: 3.36491 cumulative IPC: 3.37886 (Simulation time: 0 hr 3 min 22 sec) 

Warmup complete CPU 0 instructions: 50000004 cycles: 14797891 (Simulation time: 0 hr 3 min 22 sec) 

Heartbeat CPU 0 instructions: 60000000 cycles: 38781515 heartbeat IPC: 0.416951 cumulative IPC: 0.416951 (Simulation time: 0 hr 4 min 17 sec) 
*** Reached end of trace for Core: 0 Repeating trace: traces/spec2k17/srv_47.champsimtrace.xz
Heartbeat CPU 0 instructions: 70000003 cycles: 62819085 heartbeat IPC: 0.416016 cumulative IPC: 0.416483 (Simulation time: 0 hr 5 min 15 sec) 
Heartbeat CPU 0 instructions: 80000002 cycles: 86405708 heartbeat IPC: 0.423969 cumulative IPC: 0.418949 (Simulation time: 0 hr 6 min 14 sec) 
Heartbeat CPU 0 instructions: 90000001 cycles: 109631180 heartbeat IPC: 0.430562 cumulative IPC: 0.421793 (Simulation time: 0 hr 7 min 10 sec) 
*** Reached end of trace for Core: 0 Repeating trace: traces/spec2k17/srv_47.champsimtrace.xz
Heartbeat CPU 0 instructions: 100000002 cycles: 133009215 heartbeat IPC: 0.427752 cumulative IPC: 0.422971 (Simulation time: 0 hr 8 min 10 sec) 
Heartbeat CPU 0 instructions: 110000000 cycles: 157480013 heartbeat IPC: 0.40865 cumulative IPC: 0.420515 (Simulation time: 0 hr 9 min 6 sec) 
Heartbeat CPU 0 instructions: 120000003 cycles: 180582660 heartbeat IPC: 0.432851 cumulative IPC: 0.422234 (Simulation time: 0 hr 9 min 59 sec) 
*** Reached end of trace for Core: 0 Repeating trace: traces/spec2k17/srv_47.champsimtrace.xz
Heartbeat CPU 0 instructions: 130000001 cycles: 204174193 heartbeat IPC: 0.423881 cumulative IPC: 0.422439 (Simulation time: 0 hr 10 min 56 sec) 
Heartbeat CPU 0 instructions: 140000003 cycles: 227796245 heartbeat IPC: 0.423333 cumulative IPC: 0.422538 (Simulation time: 0 hr 11 min 53 sec) 
Heartbeat CPU 0 instructions: 150000001 cycles: 250936702 heartbeat IPC: 0.432144 cumulative IPC: 0.42348 (Simulation time: 0 hr 12 min 51 sec) 
*** Reached end of trace for Core: 0 Repeating trace: traces/spec2k17/srv_47.champsimtrace.xz
Heartbeat CPU 0 instructions: 160000002 cycles: 274519634 heartbeat IPC: 0.424036 cumulative IPC: 0.42353 (Simulation time: 0 hr 13 min 48 sec) 
Heartbeat CPU 0 instructions: 170000001 cycles: 298025038 heartbeat IPC: 0.425434 cumulative IPC: 0.423688 (Simulation time: 0 hr 14 min 42 sec) 
Heartbeat CPU 0 instructions: 180000000 cycles: 322423682 heartbeat IPC: 0.409859 cumulative IPC: 0.422591 (Simulation time: 0 hr 15 min 37 sec) 
*** Reached end of trace for Core: 0 Repeating trace: traces/spec2k17/srv_47.champsimtrace.xz
Heartbeat CPU 0 instructions: 190000000 cycles: 345739084 heartbeat IPC: 0.428901 cumulative IPC: 0.423036 (Simulation time: 0 hr 16 min 35 sec) 
Heartbeat CPU 0 instructions: 200000002 cycles: 369395187 heartbeat IPC: 0.422724 cumulative IPC: 0.423015 (Simulation time: 0 hr 17 min 28 sec) 
Heartbeat CPU 0 instructions: 210000001 cycles: 393004501 heartbeat IPC: 0.423562 cumulative IPC: 0.423049 (Simulation time: 0 hr 18 min 24 sec) 
*** Reached end of trace for Core: 0 Repeating trace: traces/spec2k17/srv_47.champsimtrace.xz
Heartbeat CPU 0 instructions: 220000000 cycles: 416764425 heartbeat IPC: 0.420877 cumulative IPC: 0.422921 (Simulation time: 0 hr 19 min 23 sec) 
Heartbeat CPU 0 instructions: 230000000 cycles: 439611875 heartbeat IPC: 0.437686 cumulative IPC: 0.423715 (Simulation time: 0 hr 20 min 17 sec) 
Heartbeat CPU 0 instructions: 240000001 cycles: 463446489 heartbeat IPC: 0.419558 cumulative IPC: 0.423494 (Simulation time: 0 hr 21 min 13 sec) 
*** Reached end of trace for Core: 0 Repeating trace: traces/spec2k17/srv_47.champsimtrace.xz
Heartbeat CPU 0 instructions: 250000003 cycles: 487496799 heartbeat IPC: 0.415795 cumulative IPC: 0.423102 (Simulation time: 0 hr 22 min 7 sec) 
Finished CPU 0 instructions: 200000003 cycles: 472698909 cumulative IPC: 0.423102 (Simulation time: 0 hr 22 min 7 sec) 

ChampSim completed all CPUs

Region of Interest Statistics

CPU 0 cumulative IPC: 0.423102 instructions: 200000003 cycles: 472698909
ITLB TOTAL     ACCESS:   35040655  HIT:   33690155  MISS:    1350500  HIT %:    96.1459  MISS %:    3.85409   MPKI: 6.7525
ITLB LOAD TRANSLATION ACCESS:   35040655  HIT:   33690155  MISS:    1350500  HIT %:    96.1459  MISS %:    3.85409   MPKI: 6.7525
ITLB PREFETCH  REQUESTED:          0  ISSUED:          0  USEFUL:          0  USELESS:          0
ITLB USEFUL LOAD PREFETCHES:          0 PREFETCH ISSUED TO LOWER LEVEL:          0  ACCURACY: -nan
ITLB TIMELY PREFETCHES:          0 LATE PREFETCHES: 0 DROPPED PREFETCHES: 0
ITLB PREFETCHES SAME FILL-ORIGIN LEVEL: 0 DIFFERENT FILL-ORIGIN LEVEL: 0
ITLB AVERAGE MISS LATENCY: 9.49666 cycles
ITLB RQ	ACCESS:   40179326	FORWARD:          0	MERGED:    4752376	TO_CACHE:   35426950

DTLB TOTAL     ACCESS:   45490492  HIT:   44230093  MISS:    1260399  HIT %:    97.2293  MISS %:    2.77069   MPKI: 6.30199
DTLB LOAD TRANSLATION ACCESS:   45490492  HIT:   44230093  MISS:    1260399  HIT %:    97.2293  MISS %:    2.77069   MPKI: 6.30199
DTLB PREFETCH  REQUESTED:          0  ISSUED:          0  USEFUL:          0  USELESS:          0
DTLB USEFUL LOAD PREFETCHES:          0 PREFETCH ISSUED TO LOWER LEVEL:          0  ACCURACY: -nan
DTLB TIMELY PREFETCHES:          0 LATE PREFETCHES: 0 DROPPED PREFETCHES: 0
DTLB PREFETCHES SAME FILL-ORIGIN LEVEL: 0 DIFFERENT FILL-ORIGIN LEVEL: 0
DTLB AVERAGE MISS LATENCY: 13.236 cycles
DTLB RQ	ACCESS:   62103425	FORWARD:          0	MERGED:   16528276	TO_CACHE:   45575149

STLB TOTAL     ACCESS:    4203287  HIT:    4145423  MISS:      57864  HIT %:    98.6234  MISS %:    1.37664   MPKI: 0.28932
STLB LOAD TRANSLATION ACCESS:    2610899  HIT:    2554603  MISS:      56296  HIT %:    97.8438  MISS %:    2.15619   MPKI: 0.28148
STLB TRANSLATION FROM L1D PREFETCHER ACCESS:    1592388  HIT:    1590820  MISS:       1568  HIT %:    99.9015  MISS %:  0.0984685   MPKI: 0.00784
STLB PREFETCH  REQUESTED:          0  ISSUED:          0  USEFUL:       1397  USELESS:        172
STLB USEFUL LOAD PREFETCHES:       1397 PREFETCH ISSUED TO LOWER LEVEL:          0  ACCURACY: inf
STLB TIMELY PREFETCHES:       1397 LATE PREFETCHES: 49 DROPPED PREFETCHES: 8828
STLB PREFETCHES SAME FILL-ORIGIN LEVEL: 0 DIFFERENT FILL-ORIGIN LEVEL: 0
STLB AVERAGE MISS LATENCY: 49412 cycles
STLB RQ	ACCESS:    4326906	FORWARD:          0	MERGED:     113982	TO_CACHE:    4212924

STLB Hit, L1D data hit: 0
STLB Hit, L2C data hit: 0
STLB Hit, LLC data hit: 0
STLB Hit, LLC data miss: 0
STLB STLB hints to L2: 0
L1D TOTAL     ACCESS:   61225778  HIT:   57536411  MISS:    3689367  HIT %:    93.9742  MISS %:    6.02584   MPKI: 18.4468
L1D LOAD      ACCESS:   37433125  HIT:   35781706  MISS:    1651419  HIT %:    95.5883  MISS %:    4.41165   MPKI: 8.25709
L1D RFO       ACCESS:   22372006  HIT:   21521939  MISS:     850067  HIT %:    96.2003  MISS %:    3.79969   MPKI: 4.25033
L1D PREFETCH  ACCESS:    1420647  HIT:     232766  MISS:    1187881  HIT %:    16.3845  MISS %:    83.6155   MPKI: 5.9394
AGUS PREFETCH L1 MISS: 0
L1D PREFETCH  REQUESTED:    3476842  ISSUED:    3476838  USEFUL:     273650  USELESS:     914114
L1D USEFUL LOAD PREFETCHES:     273650 PREFETCH ISSUED TO LOWER LEVEL:    1235015  ACCURACY: 22.1576
L1D TIMELY PREFETCHES:     273650 LATE PREFETCHES: 44872 DROPPED PREFETCHES: 9659
L1D PREFETCHES SAME FILL-ORIGIN LEVEL: 1235015 DIFFERENT FILL-ORIGIN LEVEL: 0
L1D AVERAGE MISS LATENCY: 3.21177e+06 cycles
L1D RQ	ACCESS:   54632618	FORWARD:          0	MERGED:   16946598	TO_CACHE:   37543691
L1D WQ	ACCESS:   25007272	FORWARD:     142800	MERGED:     447538	TO_CACHE:   24559734
L1D PQ	ACCESS:    1760831	FORWARD:          0	MERGED:      44353	TO_CACHE:    1716007

L1D UNIQUE REGIONS ACCESSED: 0
L1D REGIONS CONFLICTS: 0
L1D Cross Page Prefetch Requests: 84692
L1D Same Page Prefetch Requests: 2094620
L1D ROI Sum of L1D PQ occupancy: 22878495
L1D PREFETCHES PUSHED FROM L2C: 0
L1I TOTAL     ACCESS:   39470831  HIT:   34339109  MISS:    5131722  HIT %:    86.9987  MISS %:    13.0013   MPKI: 25.6586
L1I LOAD      ACCESS:   39470831  HIT:   34339109  MISS:    5131722  HIT %:    86.9987  MISS %:    13.0013   MPKI: 25.6586
L1I PREFETCH  REQUESTED:          0  ISSUED:          0  USEFUL:          0  USELESS:          0
L1I USEFUL LOAD PREFETCHES:          0 PREFETCH ISSUED TO LOWER LEVEL:          0  ACCURACY: -nan
L1I TIMELY PREFETCHES:          0 LATE PREFETCHES: 0 DROPPED PREFETCHES: 0
L1I PREFETCHES SAME FILL-ORIGIN LEVEL: 0 DIFFERENT FILL-ORIGIN LEVEL: 0
L1I AVERAGE MISS LATENCY: 20.5918 cycles
L1I RQ	ACCESS:   60672875	FORWARD:          0	MERGED:   20493549	TO_CACHE:   40179326

BTB TOTAL     ACCESS:   31810941  HIT:   25200143  MISS:    6610798  HIT %:    79.2185  MISS %:    20.7815   MPKI: 33.054
BTB BRANCH_DIRECT_JUMP	ACCESS:    2592848  HIT:    2153159  MISS:     439689
BTB BRANCH_INDIRECT	ACCESS:   13337314  HIT:   10769669  MISS:    2567645
BTB BRANCH_CONDITIONAL	ACCESS:    7075229  HIT:    6545706  MISS:     529523
BTB BRANCH_DIRECT_CALL	ACCESS:    3079695  HIT:    2283613  MISS:     796082
BTB BRANCH_INDIRECT_CALL	ACCESS:    1323118  HIT:     950696  MISS:     372422
BTB BRANCH_RETURN	ACCESS:    4402737  HIT:    2497300  MISS:    1905437
BTB BRANCH_OTHER ACCESS:          0  HIT:          0  MISS:          0

L2C TOTAL     ACCESS:   10253593  HIT:    7647376  MISS:    2606217  HIT %:    74.5824  MISS %:    25.4176   MPKI: 13.0311
L2C LOAD      ACCESS:    6738242  HIT:    5188266  MISS:    1549976  HIT %:    76.9973  MISS %:    23.0027   MPKI: 7.74988
L2C DATA LOAD MPKI: 2.43853
L2C INSTRUCTION LOAD MPKI: 5.31135
L2C RFO       ACCESS:     847794  HIT:     392373  MISS:     455421  HIT %:    46.2816  MISS %:    53.7184   MPKI: 2.2771
L2C PREFETCH  ACCESS:    1235007  HIT:     755741  MISS:     479266  HIT %:    61.1933  MISS %:    38.8067   MPKI: 2.39633
AGUS PREFETCH L1 MISS: 0
L2C DATA PREFETCH MPKI: 2.39633
L2C INSTRUCTION PREFETCH MPKI: 0
L2C WRITEBACK ACCESS:    1329049  HIT:    1265153  MISS:      63896  HIT %:    95.1924  MISS %:    4.80765   MPKI: 0.31948
L2C LOAD TRANSLATION ACCESS:      87392  HIT:      33627  MISS:      53765  HIT %:    38.4784  MISS %:    61.5216   MPKI: 0.268825
L2C TRANSLATION FROM L1D PREFETCHER ACCESS:      16109  HIT:      12216  MISS:       3893  HIT %:    75.8334  MISS %:    24.1666   MPKI: 0.019465
L2C PREFETCH  REQUESTED:          0  ISSUED:          0  USEFUL:      31985  USELESS:     451127
L2C USEFUL LOAD PREFETCHES:      31985 PREFETCH ISSUED TO LOWER LEVEL:     479266  ACCURACY: 6.67375
L2C TIMELY PREFETCHES:      31985 LATE PREFETCHES: 0 DROPPED PREFETCHES: 0
L2C PREFETCHES SAME FILL-ORIGIN LEVEL: 0 DIFFERENT FILL-ORIGIN LEVEL: 0
L2C AVERAGE MISS LATENCY: 59.2909 cycles
L2C RQ	ACCESS:    7689575	FORWARD:          0	MERGED:          0	TO_CACHE:    7689537
L2C WQ	ACCESS:    1329049	FORWARD:         46	MERGED:          0	TO_CACHE:    1329049
L2C PQ	ACCESS:    1235015	FORWARD:          0	MERGED:          0	TO_CACHE:    1235007

L2C Instructions Evicting Data 581618
L2C Translations Evicting Data 36551
L2C Data Evicting Data 833267
L2C Instructions Evicting Instructions 459551
L2C Translations Evicting Instructions 19437
L2C Data Evicting Instructions 555204
L2C Instructions Evicting Translations 21101
L2C Translations Evicting Translations 1670
L2C Data Evicting Translations 33922
L2C Dense regions hint from L2: 0
PSCL5 TOTAL     ACCESS:      66692  HIT:      66692  MISS:          0  HIT %:        100  MISS %:          0   MPKI: 0
PSCL5 LOAD TRANSLATION ACCESS:      56247  HIT:      56247  MISS:          0  HIT %:        100  MISS %:          0   MPKI: 0
PSCL5 TRANSLATION FROM L1D PREFETCHER ACCESS:      10445  HIT:      10445  MISS:          0  HIT %:        100  MISS %:          0   MPKI: 0
PSCL5 PREFETCH  REQUESTED:          0  ISSUED:          0  USEFUL:          0  USELESS:          0
PSCL5 USEFUL LOAD PREFETCHES:          0 PREFETCH ISSUED TO LOWER LEVEL:          0  ACCURACY: -nan
PSCL5 TIMELY PREFETCHES:          0 LATE PREFETCHES: 0 DROPPED PREFETCHES: 0
PSCL5 PREFETCHES SAME FILL-ORIGIN LEVEL: 0 DIFFERENT FILL-ORIGIN LEVEL: 0

PSCL4 TOTAL     ACCESS:      65503  HIT:      65083  MISS:        420  HIT %:    99.3588  MISS %:   0.641192   MPKI: 0.0021
PSCL4 LOAD TRANSLATION ACCESS:      55567  HIT:      55147  MISS:        420  HIT %:    99.2442  MISS %:   0.755844   MPKI: 0.0021
PSCL4 TRANSLATION FROM L1D PREFETCHER ACCESS:       9936  HIT:       9936  MISS:          0  HIT %:        100  MISS %:          0   MPKI: 0
PSCL4 PREFETCH  REQUESTED:          0  ISSUED:          0  USEFUL:          0  USELESS:          0
PSCL4 USEFUL LOAD PREFETCHES:          0 PREFETCH ISSUED TO LOWER LEVEL:          0  ACCURACY: -nan
PSCL4 TIMELY PREFETCHES:          0 LATE PREFETCHES: 0 DROPPED PREFETCHES: 0
PSCL4 PREFETCHES SAME FILL-ORIGIN LEVEL: 0 DIFFERENT FILL-ORIGIN LEVEL: 0

PSCL3 TOTAL     ACCESS:      61228  HIT:      53233  MISS:       7995  HIT %:    86.9422  MISS %:    13.0578   MPKI: 0.039975
PSCL3 LOAD TRANSLATION ACCESS:      52831  HIT:      44836  MISS:       7995  HIT %:    84.8668  MISS %:    15.1332   MPKI: 0.039975
PSCL3 TRANSLATION FROM L1D PREFETCHER ACCESS:       8397  HIT:       8397  MISS:          0  HIT %:        100  MISS %:          0   MPKI: 0
PSCL3 PREFETCH  REQUESTED:          0  ISSUED:          0  USEFUL:          0  USELESS:          0
PSCL3 USEFUL LOAD PREFETCHES:          0 PREFETCH ISSUED TO LOWER LEVEL:          0  ACCURACY: -nan
PSCL3 TIMELY PREFETCHES:          0 LATE PREFETCHES: 0 DROPPED PREFETCHES: 0
PSCL3 PREFETCHES SAME FILL-ORIGIN LEVEL: 0 DIFFERENT FILL-ORIGIN LEVEL: 0

PSCL2 TOTAL     ACCESS:      62697  HIT:      39651  MISS:      23046  HIT %:    63.2423  MISS %:    36.7577   MPKI: 0.11523
PSCL2 LOAD TRANSLATION ACCESS:      56471  HIT:      33425  MISS:      23046  HIT %:    59.1897  MISS %:    40.8103   MPKI: 0.11523
PSCL2 TRANSLATION FROM L1D PREFETCHER ACCESS:       6226  HIT:       6226  MISS:          0  HIT %:        100  MISS %:          0   MPKI: 0
PSCL2 PREFETCH  REQUESTED:          0  ISSUED:          0  USEFUL:          0  USELESS:          0
PSCL2 USEFUL LOAD PREFETCHES:          0 PREFETCH ISSUED TO LOWER LEVEL:          0  ACCURACY: -nan
PSCL2 TIMELY PREFETCHES:          0 LATE PREFETCHES: 0 DROPPED PREFETCHES: 0
PSCL2 PREFETCHES SAME FILL-ORIGIN LEVEL: 0 DIFFERENT FILL-ORIGIN LEVEL: 0

LLC TOTAL     ACCESS:    3145039  HIT:    2626228  MISS:     518811  HIT %:    83.5038  MISS %:    16.4962   MPKI: 2.59405
LLC LOAD      ACCESS:    1549962  HIT:    1382686  MISS:     167276  HIT %:    89.2077  MISS %:    10.7923   MPKI: 0.83638
LLC RFO       ACCESS:     455411  HIT:     293241  MISS:     162170  HIT %:    64.3904  MISS %:    35.6096   MPKI: 0.81085
LLC PREFETCH  ACCESS:     479266  HIT:     327122  MISS:     152144  HIT %:    68.2548  MISS %:    31.7452   MPKI: 0.76072
AGUS PREFETCH L1 MISS: 0
LLC WRITEBACK ACCESS:     602742  HIT:     580597  MISS:      22145  HIT %:     96.326  MISS %:    3.67404   MPKI: 0.110725
LLC LOAD TRANSLATION ACCESS:      53765  HIT:      39360  MISS:      14405  HIT %:    73.2075  MISS %:    26.7925   MPKI: 0.072025
LLC TRANSLATION FROM L1D PREFETCHER ACCESS:       3893  HIT:       3222  MISS:        671  HIT %:    82.7639  MISS %:    17.2361   MPKI: 0.003355
LLC PREFETCH  REQUESTED:          0  ISSUED:          0  USEFUL:       7858  USELESS:     147411
LLC USEFUL LOAD PREFETCHES:       7858 PREFETCH ISSUED TO LOWER LEVEL:     152144  ACCURACY: 5.16484
LLC TIMELY PREFETCHES:       7858 LATE PREFETCHES: 0 DROPPED PREFETCHES: 0
LLC PREFETCHES SAME FILL-ORIGIN LEVEL: 0 DIFFERENT FILL-ORIGIN LEVEL: 0
LLC AVERAGE MISS LATENCY: 150.834 cycles
LLC RQ	ACCESS:    2063055	FORWARD:          0	MERGED:          0	TO_CACHE:    2063031
LLC WQ	ACCESS:     602742	FORWARD:         24	MERGED:          0	TO_CACHE:     602742
LLC PQ	ACCESS:     479266	FORWARD:          0	MERGED:          0	TO_CACHE:     479266

LLC Dense regions hint to LLC: 0

RAW hits: 2744115
Loads Generated: 57376736
Loads sent to L1D: 54632618
Stores Generated: 25007264
Stores sent to L1D: 25007272
Major fault: 0 Minor fault: 5261
Allocated PAGES: 5261
CPU 0 L1d next line prefetcher final stats

-63,511
-62,547
-61,475
-60,519
-59,473
-58,495
-57,466
-56,426
-55,439
-54,515
-53,484
-52,546
-51,483
-50,461
-49,502
-48,521
-47,492
-46,580
-45,523
-44,511
-43,627
-42,527
-41,549
-40,633
-39,618
-38,538
-37,549
-36,654
-35,677
-34,627
-33,578
-32,572
-31,742
-30,670
-29,687
-28,692
-27,693
-26,746
-25,687
-24,722
-23,649
-22,701
-21,732
-20,697
-19,754
-18,794
-17,753
-16,877
-15,883
-14,873
-13,962
-12,970
-11,931
-10,1000
-9,1110
-8,1077
-7,1086
-6,1177
-5,1197
-4,1308
-3,1480
-2,1778
-1,2418
0,2891
1,3199
2,2965
3,2840
4,2857
5,2433
6,2597
7,2191
8,2207
9,1973
10,1956
11,1972
12,2215
13,1852
14,1733
15,1646
16,2085
17,1732
18,1657
19,1707
20,1592
21,1367
22,1633
23,1625
24,1614
25,1590
26,1542
27,1419
28,1500
29,1641
30,1454
31,1477
32,1647
33,1429
34,1401
35,1523
36,1638
37,1275
38,1302
39,1399
40,1380
41,1282
42,1441
43,1293
44,1250
45,1256
46,1209
47,1164
48,1415
49,1193
50,1142
51,1107
52,1323
53,1139
54,1225
55,1248
56,1167
57,1011
58,1315
59,1153
60,1269
61,1199
62,1271
63,1055

DRAM Statistics
 CHANNEL 0
 RQ ROW_BUFFER_HIT:     164626  ROW_BUFFER_MISS:     332034
 DBUS_CONGESTED:        379
 WQ ROW_BUFFER_HIT:      30272  ROW_BUFFER_MISS:     185646  FULL:          0

 AVG_CONGESTED_CYCLE: 5
 All warmup complete: 2
Channel 0 Bank busy for read cycles: 0
Channel 0 Bank busy for write cycles: 0
Channel 0
Rank 0
0banks busy for read cycles: 418537119
0banks busy for write cycles: 92730
1banks busy for read cycles: 20270029
1banks busy for write cycles: 11825067
2banks busy for read cycles: 9567761
2banks busy for write cycles: 4122698
3banks busy for read cycles: 2000641
3banks busy for write cycles: 1494906
4banks busy for read cycles: 930640
4banks busy for write cycles: 725177
5banks busy for read cycles: 241672
5banks busy for write cycles: 395328
6banks busy for read cycles: 187480
6banks busy for write cycles: 261759
7banks busy for read cycles: 162730
7banks busy for write cycles: 256259
8banks busy for read cycles: 690556
8banks busy for write cycles: 936358

CPU 0 Branch Prediction Accuracy: 99.7602% MPKI: 0.428415 Average ROB Occupancy at Mispredict: 24.6997
Branch types
NOT_BRANCH: 164263835 82.1319%
BRANCH_DIRECT_JUMP: 2592848 1.29642%
BRANCH_INDIRECT: 13337314 6.66866%
BRANCH_CONDITIONAL: 11000191 5.5001%
BRANCH_DIRECT_CALL: 3079695 1.53985%
BRANCH_INDIRECT_CALL: 1323118 0.661559%
BRANCH_RETURN: 4402737 2.20137%
BRANCH_OTHER: 0 0%

DRAM PAGES: 1048576
Allocated PAGES: 5261
