
*** ChampSim Multicore Out-of-Order Simulator ***

Warmup Instructions: 50000000
Simulation Instructions: 200000000
Number of CPUs: 1
LLC sets: 2048
LLC ways: 16
Off-chip DRAM Size: 4096 MB Channels: 1 Width: 64-bit Data Rate: 6400 MT/s
CPU 0 runs traces/spec2k17/srv_35.champsimtrace.xz
.xz
BTB has LRU replacement policy
ITLB has LRU replacement policy
DTLB has LRU replacement policy
STLB has LRU replacement policy
L1I has LRU replacement policy
CPU 0 L2C next line prefetcher
L1D has LRU replacement policy
Initialize SRRIP state for L2C
Initialize DRRIP state for LLC
Heartbeat CPU 0 instructions: 10000001 cycles: 2939149 heartbeat IPC: 3.40235 cumulative IPC: 3.40235 (Simulation time: 0 hr 0 min 41 sec) 
Heartbeat CPU 0 instructions: 20000000 cycles: 5882043 heartbeat IPC: 3.39802 cumulative IPC: 3.40018 (Simulation time: 0 hr 1 min 22 sec) 
Heartbeat CPU 0 instructions: 30000001 cycles: 8826506 heartbeat IPC: 3.39621 cumulative IPC: 3.39885 (Simulation time: 0 hr 2 min 1 sec) 
*** Reached end of trace for Core: 0 Repeating trace: traces/spec2k17/srv_35.champsimtrace.xz
Heartbeat CPU 0 instructions: 40000002 cycles: 11761874 heartbeat IPC: 3.40673 cumulative IPC: 3.40082 (Simulation time: 0 hr 2 min 40 sec) 
Heartbeat CPU 0 instructions: 50000000 cycles: 14703485 heartbeat IPC: 3.3995 cumulative IPC: 3.40055 (Simulation time: 0 hr 3 min 18 sec) 

Warmup complete CPU 0 instructions: 50000004 cycles: 14703486 (Simulation time: 0 hr 3 min 18 sec) 

Heartbeat CPU 0 instructions: 60000002 cycles: 34447383 heartbeat IPC: 0.506486 cumulative IPC: 0.506486 (Simulation time: 0 hr 4 min 26 sec) 
*** Reached end of trace for Core: 0 Repeating trace: traces/spec2k17/srv_35.champsimtrace.xz
Heartbeat CPU 0 instructions: 70000001 cycles: 53701092 heartbeat IPC: 0.51938 cumulative IPC: 0.512852 (Simulation time: 0 hr 5 min 34 sec) 
Heartbeat CPU 0 instructions: 80000002 cycles: 73223096 heartbeat IPC: 0.512243 cumulative IPC: 0.512649 (Simulation time: 0 hr 6 min 39 sec) 
Heartbeat CPU 0 instructions: 90000003 cycles: 92818814 heartbeat IPC: 0.510316 cumulative IPC: 0.512063 (Simulation time: 0 hr 7 min 46 sec) 
*** Reached end of trace for Core: 0 Repeating trace: traces/spec2k17/srv_35.champsimtrace.xz
Heartbeat CPU 0 instructions: 100000001 cycles: 112138734 heartbeat IPC: 0.5176 cumulative IPC: 0.513161 (Simulation time: 0 hr 8 min 55 sec) 
Heartbeat CPU 0 instructions: 110000000 cycles: 131700655 heartbeat IPC: 0.511197 cumulative IPC: 0.512833 (Simulation time: 0 hr 10 min 0 sec) 
Heartbeat CPU 0 instructions: 120000000 cycles: 151237184 heartbeat IPC: 0.511862 cumulative IPC: 0.512694 (Simulation time: 0 hr 11 min 11 sec) 
*** Reached end of trace for Core: 0 Repeating trace: traces/spec2k17/srv_35.champsimtrace.xz
Heartbeat CPU 0 instructions: 130000001 cycles: 170513915 heartbeat IPC: 0.51876 cumulative IPC: 0.513444 (Simulation time: 0 hr 12 min 20 sec) 
Heartbeat CPU 0 instructions: 140000000 cycles: 190094432 heartbeat IPC: 0.510712 cumulative IPC: 0.513139 (Simulation time: 0 hr 13 min 27 sec) 
Heartbeat CPU 0 instructions: 150000002 cycles: 209523999 heartbeat IPC: 0.51468 cumulative IPC: 0.513293 (Simulation time: 0 hr 14 min 32 sec) 
Heartbeat CPU 0 instructions: 160000001 cycles: 228862674 heartbeat IPC: 0.517098 cumulative IPC: 0.513637 (Simulation time: 0 hr 15 min 41 sec) 
*** Reached end of trace for Core: 0 Repeating trace: traces/spec2k17/srv_35.champsimtrace.xz
Heartbeat CPU 0 instructions: 170000000 cycles: 248132519 heartbeat IPC: 0.518945 cumulative IPC: 0.514075 (Simulation time: 0 hr 16 min 45 sec) 
Heartbeat CPU 0 instructions: 180000000 cycles: 267855477 heartbeat IPC: 0.507023 cumulative IPC: 0.513525 (Simulation time: 0 hr 17 min 56 sec) 
Heartbeat CPU 0 instructions: 190000003 cycles: 287235054 heartbeat IPC: 0.516007 cumulative IPC: 0.513702 (Simulation time: 0 hr 19 min 3 sec) 
*** Reached end of trace for Core: 0 Repeating trace: traces/spec2k17/srv_35.champsimtrace.xz
Heartbeat CPU 0 instructions: 200000003 cycles: 306475677 heartbeat IPC: 0.519734 cumulative IPC: 0.5141 (Simulation time: 0 hr 20 min 12 sec) 
Heartbeat CPU 0 instructions: 210000001 cycles: 326002351 heartbeat IPC: 0.51212 cumulative IPC: 0.513976 (Simulation time: 0 hr 21 min 23 sec) 
Heartbeat CPU 0 instructions: 220000000 cycles: 345514436 heartbeat IPC: 0.512503 cumulative IPC: 0.513889 (Simulation time: 0 hr 22 min 35 sec) 
*** Reached end of trace for Core: 0 Repeating trace: traces/spec2k17/srv_35.champsimtrace.xz
Heartbeat CPU 0 instructions: 230000000 cycles: 364763051 heartbeat IPC: 0.519518 cumulative IPC: 0.514198 (Simulation time: 0 hr 23 min 46 sec) 
Heartbeat CPU 0 instructions: 240000001 cycles: 384274683 heartbeat IPC: 0.512515 cumulative IPC: 0.514109 (Simulation time: 0 hr 24 min 55 sec) 
Heartbeat CPU 0 instructions: 250000001 cycles: 403844840 heartbeat IPC: 0.510982 cumulative IPC: 0.513952 (Simulation time: 0 hr 26 min 1 sec) 
Finished CPU 0 instructions: 200000001 cycles: 389141355 cumulative IPC: 0.513952 (Simulation time: 0 hr 26 min 1 sec) 

ChampSim completed all CPUs

Region of Interest Statistics

CPU 0 cumulative IPC: 0.513952 instructions: 200000001 cycles: 389141355
ITLB TOTAL     ACCESS:   33773921  HIT:   32235607  MISS:    1538314  HIT %:    95.4453  MISS %:    4.55474   MPKI: 7.69157
ITLB LOAD TRANSLATION ACCESS:   33773921  HIT:   32235607  MISS:    1538314  HIT %:    95.4453  MISS %:    4.55474   MPKI: 7.69157
ITLB PREFETCH  REQUESTED:          0  ISSUED:          0  USEFUL:          0  USELESS:          0
ITLB USEFUL LOAD PREFETCHES:          0 PREFETCH ISSUED TO LOWER LEVEL:          0  ACCURACY: -nan
ITLB TIMELY PREFETCHES:          0 LATE PREFETCHES: 0 DROPPED PREFETCHES: 0
ITLB PREFETCHES SAME FILL-ORIGIN LEVEL: 0 DIFFERENT FILL-ORIGIN LEVEL: 0
ITLB AVERAGE MISS LATENCY: 9.25963 cycles
ITLB RQ	ACCESS:   40659191	FORWARD:          0	MERGED:    6390697	TO_CACHE:   34268494

DTLB TOTAL     ACCESS:   40069419  HIT:   38538245  MISS:    1531174  HIT %:    96.1787  MISS %:     3.8213   MPKI: 7.65587
DTLB LOAD TRANSLATION ACCESS:   40069419  HIT:   38538245  MISS:    1531174  HIT %:    96.1787  MISS %:     3.8213   MPKI: 7.65587
DTLB PREFETCH  REQUESTED:          0  ISSUED:          0  USEFUL:          0  USELESS:          0
DTLB USEFUL LOAD PREFETCHES:          0 PREFETCH ISSUED TO LOWER LEVEL:          0  ACCURACY: -nan
DTLB TIMELY PREFETCHES:          0 LATE PREFETCHES: 0 DROPPED PREFETCHES: 0
DTLB PREFETCHES SAME FILL-ORIGIN LEVEL: 0 DIFFERENT FILL-ORIGIN LEVEL: 0
DTLB AVERAGE MISS LATENCY: 14.9131 cycles
DTLB RQ	ACCESS:   61141032	FORWARD:          0	MERGED:   20677000	TO_CACHE:   40464032

STLB TOTAL     ACCESS:    5312307  HIT:    5233295  MISS:      79012  HIT %:    98.5127  MISS %:    1.48734   MPKI: 0.39506
STLB LOAD TRANSLATION ACCESS:    3069488  HIT:    2994026  MISS:      75462  HIT %:    97.5415  MISS %:    2.45846   MPKI: 0.37731
STLB TRANSLATION FROM L1D PREFETCHER ACCESS:    2242819  HIT:    2239269  MISS:       3550  HIT %:    99.8417  MISS %:   0.158283   MPKI: 0.01775
STLB PREFETCH  REQUESTED:          0  ISSUED:          0  USEFUL:       3086  USELESS:        463
STLB USEFUL LOAD PREFETCHES:       3086 PREFETCH ISSUED TO LOWER LEVEL:          0  ACCURACY: inf
STLB TIMELY PREFETCHES:       3086 LATE PREFETCHES: 816 DROPPED PREFETCHES: 8091
STLB PREFETCHES SAME FILL-ORIGIN LEVEL: 0 DIFFERENT FILL-ORIGIN LEVEL: 0
STLB AVERAGE MISS LATENCY: 654462 cycles
STLB RQ	ACCESS:    5968380	FORWARD:          0	MERGED:     644956	TO_CACHE:    5323424

STLB Hit, L1D data hit: 0
STLB Hit, L2C data hit: 0
STLB Hit, LLC data hit: 0
STLB Hit, LLC data miss: 0
STLB STLB hints to L2: 0
L1D TOTAL     ACCESS:   51097280  HIT:   43173190  MISS:    7924090  HIT %:    84.4921  MISS %:    15.5079   MPKI: 39.6204
L1D LOAD      ACCESS:   26840883  HIT:   24143858  MISS:    2697025  HIT %:    89.9518  MISS %:    10.0482   MPKI: 13.4851
L1D RFO       ACCESS:   22411690  HIT:   18760009  MISS:    3651681  HIT %:    83.7064  MISS %:    16.2936   MPKI: 18.2584
L1D PREFETCH  ACCESS:    1844707  HIT:     269323  MISS:    1575384  HIT %:    14.5998  MISS %:    85.4002   MPKI: 7.87692
AGUS PREFETCH L1 MISS: 0
L1D PREFETCH  REQUESTED:    5958525  ISSUED:    5955097  USEFUL:     525060  USELESS:    1050359
L1D USEFUL LOAD PREFETCHES:     525060 PREFETCH ISSUED TO LOWER LEVEL:    1980486  ACCURACY: 26.5117
L1D TIMELY PREFETCHES:     525060 LATE PREFETCHES: 401225 DROPPED PREFETCHES: 10566
L1D PREFETCHES SAME FILL-ORIGIN LEVEL: 1980486 DIFFERENT FILL-ORIGIN LEVEL: 0
L1D AVERAGE MISS LATENCY: 1.06971e+07 cycles
L1D RQ	ACCESS:   45308081	FORWARD:          0	MERGED:   17839569	TO_CACHE:   27205762
L1D WQ	ACCESS:   34133601	FORWARD:     263178	MERGED:     198331	TO_CACHE:   33935270
L1D PQ	ACCESS:    3056205	FORWARD:          0	MERGED:     156885	TO_CACHE:    2898892

L1D UNIQUE REGIONS ACCESSED: 0
L1D REGIONS CONFLICTS: 0
L1D Cross Page Prefetch Requests: 118208
L1D Same Page Prefetch Requests: 3568528
L1D ROI Sum of L1D PQ occupancy: 43516231
L1D PREFETCHES PUSHED FROM L2C: 0
L1I TOTAL     ACCESS:   38000852  HIT:   28895384  MISS:    9105468  HIT %:    76.0388  MISS %:    23.9612   MPKI: 45.5273
L1I LOAD      ACCESS:   38000852  HIT:   28895384  MISS:    9105468  HIT %:    76.0388  MISS %:    23.9612   MPKI: 45.5273
L1I PREFETCH  REQUESTED:          0  ISSUED:          0  USEFUL:          0  USELESS:          0
L1I USEFUL LOAD PREFETCHES:          0 PREFETCH ISSUED TO LOWER LEVEL:          0  ACCURACY: -nan
L1I TIMELY PREFETCHES:          0 LATE PREFETCHES: 0 DROPPED PREFETCHES: 0
L1I PREFETCHES SAME FILL-ORIGIN LEVEL: 0 DIFFERENT FILL-ORIGIN LEVEL: 0
L1I AVERAGE MISS LATENCY: 16.9742 cycles
L1I RQ	ACCESS:   58966613	FORWARD:          0	MERGED:   18307422	TO_CACHE:   40659191

BTB TOTAL     ACCESS:   25730497  HIT:   24146061  MISS:    1584436  HIT %:    93.8422  MISS %:    6.15781   MPKI: 7.92218
BTB BRANCH_DIRECT_JUMP	ACCESS:    1658707  HIT:    1646128  MISS:      12579
BTB BRANCH_INDIRECT	ACCESS:    9991440  HIT:    9459146  MISS:     532294
BTB BRANCH_CONDITIONAL	ACCESS:    7236369  HIT:    7219067  MISS:      17302
BTB BRANCH_DIRECT_CALL	ACCESS:    2824055  HIT:    2784656  MISS:      39399
BTB BRANCH_INDIRECT_CALL	ACCESS:     597965  HIT:     486107  MISS:     111858
BTB BRANCH_RETURN	ACCESS:    3421961  HIT:    2550957  MISS:     871004
BTB BRANCH_OTHER ACCESS:          0  HIT:          0  MISS:          0

L2C TOTAL     ACCESS:   21492724  HIT:   14227282  MISS:    7265442  HIT %:    66.1958  MISS %:    33.8042   MPKI: 36.3272
L2C LOAD      ACCESS:   11400912  HIT:    9260043  MISS:    2140869  HIT %:    81.2219  MISS %:    18.7781   MPKI: 10.7043
L2C DATA LOAD MPKI: 7.67467
L2C INSTRUCTION LOAD MPKI: 3.02967
L2C RFO       ACCESS:    3647791  HIT:     142730  MISS:    3505061  HIT %:    3.91278  MISS %:    96.0872   MPKI: 17.5253
L2C PREFETCH  ACCESS:    1980478  HIT:     539710  MISS:    1440768  HIT %:    27.2515  MISS %:    72.7485   MPKI: 7.20384
AGUS PREFETCH L1 MISS: 0
L2C DATA PREFETCH MPKI: 7.20384
L2C INSTRUCTION PREFETCH MPKI: 0
L2C WRITEBACK ACCESS:    4360109  HIT:    4229041  MISS:     131068  HIT %:    96.9939  MISS %:    3.00607   MPKI: 0.65534
L2C LOAD TRANSLATION ACCESS:      87195  HIT:      44136  MISS:      43059  HIT %:    50.6176  MISS %:    49.3824   MPKI: 0.215295
L2C TRANSLATION FROM L1D PREFETCHER ACCESS:      16239  HIT:      11622  MISS:       4617  HIT %:    71.5684  MISS %:    28.4316   MPKI: 0.023085
L2C PREFETCH  REQUESTED:          0  ISSUED:          0  USEFUL:      60150  USELESS:    1385871
L2C USEFUL LOAD PREFETCHES:      60150 PREFETCH ISSUED TO LOWER LEVEL:    1440769  ACCURACY: 4.17485
L2C TIMELY PREFETCHES:      60150 LATE PREFETCHES: 0 DROPPED PREFETCHES: 0
L2C PREFETCHES SAME FILL-ORIGIN LEVEL: 0 DIFFERENT FILL-ORIGIN LEVEL: 0
L2C AVERAGE MISS LATENCY: 150.878 cycles
L2C RQ	ACCESS:   15152507	FORWARD:          0	MERGED:          0	TO_CACHE:   15152137
L2C WQ	ACCESS:    4360110	FORWARD:        377	MERGED:          0	TO_CACHE:    4360110
L2C PQ	ACCESS:    1980486	FORWARD:          0	MERGED:          0	TO_CACHE:    1980479

L2C Instructions Evicting Data 551929
L2C Translations Evicting Data 43756
L2C Data Evicting Data 5897458
L2C Instructions Evicting Instructions 49837
L2C Translations Evicting Instructions 3636
L2C Data Evicting Instructions 540745
L2C Instructions Evicting Translations 4169
L2C Translations Evicting Translations 284
L2C Data Evicting Translations 42560
L2C Dense regions hint from L2: 0
PSCL5 TOTAL     ACCESS:      87103  HIT:      87103  MISS:          0  HIT %:        100  MISS %:          0   MPKI: 0
PSCL5 LOAD TRANSLATION ACCESS:      74646  HIT:      74646  MISS:          0  HIT %:        100  MISS %:          0   MPKI: 0
PSCL5 TRANSLATION FROM L1D PREFETCHER ACCESS:      12457  HIT:      12457  MISS:          0  HIT %:        100  MISS %:          0   MPKI: 0
PSCL5 PREFETCH  REQUESTED:          0  ISSUED:          0  USEFUL:          0  USELESS:          0
PSCL5 USEFUL LOAD PREFETCHES:          0 PREFETCH ISSUED TO LOWER LEVEL:          0  ACCURACY: -nan
PSCL5 TIMELY PREFETCHES:          0 LATE PREFETCHES: 0 DROPPED PREFETCHES: 0
PSCL5 PREFETCHES SAME FILL-ORIGIN LEVEL: 0 DIFFERENT FILL-ORIGIN LEVEL: 0

PSCL4 TOTAL     ACCESS:      84918  HIT:      84734  MISS:        184  HIT %:    99.7833  MISS %:    0.21668   MPKI: 0.00092
PSCL4 LOAD TRANSLATION ACCESS:      72944  HIT:      72760  MISS:        184  HIT %:    99.7478  MISS %:   0.252248   MPKI: 0.00092
PSCL4 TRANSLATION FROM L1D PREFETCHER ACCESS:      11974  HIT:      11974  MISS:          0  HIT %:        100  MISS %:          0   MPKI: 0
PSCL4 PREFETCH  REQUESTED:          0  ISSUED:          0  USEFUL:          0  USELESS:          0
PSCL4 USEFUL LOAD PREFETCHES:          0 PREFETCH ISSUED TO LOWER LEVEL:          0  ACCURACY: -nan
PSCL4 TIMELY PREFETCHES:          0 LATE PREFETCHES: 0 DROPPED PREFETCHES: 0
PSCL4 PREFETCHES SAME FILL-ORIGIN LEVEL: 0 DIFFERENT FILL-ORIGIN LEVEL: 0

PSCL3 TOTAL     ACCESS:      79005  HIT:      77695  MISS:       1310  HIT %:    98.3419  MISS %:    1.65812   MPKI: 0.00655
PSCL3 LOAD TRANSLATION ACCESS:      66873  HIT:      65563  MISS:       1310  HIT %:    98.0411  MISS %:    1.95894   MPKI: 0.00655
PSCL3 TRANSLATION FROM L1D PREFETCHER ACCESS:      12132  HIT:      12132  MISS:          0  HIT %:        100  MISS %:          0   MPKI: 0
PSCL3 PREFETCH  REQUESTED:          0  ISSUED:          0  USEFUL:          0  USELESS:          0
PSCL3 USEFUL LOAD PREFETCHES:          0 PREFETCH ISSUED TO LOWER LEVEL:          0  ACCURACY: -nan
PSCL3 TIMELY PREFETCHES:          0 LATE PREFETCHES: 0 DROPPED PREFETCHES: 0
PSCL3 PREFETCHES SAME FILL-ORIGIN LEVEL: 0 DIFFERENT FILL-ORIGIN LEVEL: 0

PSCL2 TOTAL     ACCESS:      83604  HIT:      72279  MISS:      11325  HIT %:     86.454  MISS %:     13.546   MPKI: 0.056625
PSCL2 LOAD TRANSLATION ACCESS:      74866  HIT:      63541  MISS:      11325  HIT %:     84.873  MISS %:     15.127   MPKI: 0.056625
PSCL2 TRANSLATION FROM L1D PREFETCHER ACCESS:       8738  HIT:       8738  MISS:          0  HIT %:        100  MISS %:          0   MPKI: 0
PSCL2 PREFETCH  REQUESTED:          0  ISSUED:          0  USEFUL:          0  USELESS:          0
PSCL2 USEFUL LOAD PREFETCHES:          0 PREFETCH ISSUED TO LOWER LEVEL:          0  ACCURACY: -nan
PSCL2 TIMELY PREFETCHES:          0 LATE PREFETCHES: 0 DROPPED PREFETCHES: 0
PSCL2 PREFETCHES SAME FILL-ORIGIN LEVEL: 0 DIFFERENT FILL-ORIGIN LEVEL: 0

LLC TOTAL     ACCESS:   11178111  HIT:    4575886  MISS:    6602225  HIT %:    40.9361  MISS %:    59.0639   MPKI: 33.0111
LLC LOAD      ACCESS:    2140866  HIT:    1437090  MISS:     703776  HIT %:    67.1266  MISS %:    32.8734   MPKI: 3.51888
LLC RFO       ACCESS:    3505036  HIT:     961654  MISS:    2543382  HIT %:    27.4364  MISS %:    72.5636   MPKI: 12.7169
LLC PREFETCH  ACCESS:    1440763  HIT:     606875  MISS:     833888  HIT %:    42.1218  MISS %:    57.8782   MPKI: 4.16944
AGUS PREFETCH L1 MISS: 0
LLC WRITEBACK ACCESS:    4043770  HIT:    1555195  MISS:    2488575  HIT %:     38.459  MISS %:     61.541   MPKI: 12.4429
LLC LOAD TRANSLATION ACCESS:      43059  HIT:      13361  MISS:      29698  HIT %:    31.0295  MISS %:    68.9705   MPKI: 0.14849
LLC TRANSLATION FROM L1D PREFETCHER ACCESS:       4617  HIT:       1711  MISS:       2906  HIT %:    37.0587  MISS %:    62.9413   MPKI: 0.01453
LLC PREFETCH  REQUESTED:          0  ISSUED:          0  USEFUL:       3014  USELESS:     834260
LLC USEFUL LOAD PREFETCHES:       3014 PREFETCH ISSUED TO LOWER LEVEL:     833889  ACCURACY: 0.361439
LLC TIMELY PREFETCHES:       3014 LATE PREFETCHES: 0 DROPPED PREFETCHES: 0
LLC PREFETCHES SAME FILL-ORIGIN LEVEL: 0 DIFFERENT FILL-ORIGIN LEVEL: 0
LLC AVERAGE MISS LATENCY: 133.614 cycles
LLC RQ	ACCESS:    5693606	FORWARD:          0	MERGED:          0	TO_CACHE:    5693578
LLC WQ	ACCESS:    4043770	FORWARD:         33	MERGED:          0	TO_CACHE:    4043770
LLC PQ	ACCESS:    1440769	FORWARD:          0	MERGED:          0	TO_CACHE:    1440764

LLC Dense regions hint to LLC: 0

RAW hits: 2411455
Loads Generated: 47719538
Loads sent to L1D: 45308081
Stores Generated: 34133594
Stores sent to L1D: 34133601
Major fault: 0 Minor fault: 9063
Allocated PAGES: 9063
CPU 0 L1d next line prefetcher final stats

-63,1503
-62,1454
-61,1418
-60,1856
-59,1395
-58,1390
-57,1381
-56,1462
-55,1419
-54,1474
-53,1464
-52,1374
-51,1634
-50,1509
-49,1539
-48,1657
-47,1513
-46,1655
-45,1492
-44,1513
-43,1526
-42,1486
-41,1495
-40,1619
-39,1673
-38,1607
-37,1720
-36,1766
-35,1907
-34,1903
-33,1705
-32,2243
-31,1877
-30,2187
-29,1706
-28,1915
-27,1748
-26,1732
-25,1527
-24,1759
-23,1728
-22,1569
-21,1569
-20,1916
-19,1731
-18,1720
-17,1658
-16,2009
-15,1775
-14,1914
-13,1614
-12,1525
-11,1742
-10,1361
-9,1536
-8,1809
-7,1588
-6,1828
-5,1831
-4,1995
-3,1987
-2,2450
-1,3786
0,5310
1,11860
2,10978
3,10416
4,10397
5,9727
6,9719
7,9268
8,9749
9,8912
10,8141
11,8396
12,8438
13,8078
14,8259
15,8358
16,9344
17,8374
18,7572
19,7997
20,7926
21,7446
22,7290
23,7516
24,7787
25,7300
26,6724
27,6434
28,6762
29,6465
30,6569
31,6600
32,7383
33,6558
34,6369
35,6270
36,6391
37,5991
38,5968
39,6093
40,6565
41,5953
42,5699
43,5781
44,5809
45,5642
46,5586
47,5809
48,6311
49,5682
50,5508
51,5530
52,5509
53,5224
54,5249
55,5453
56,5779
57,5407
58,5267
59,5296
60,5749
61,5291
62,5254
63,5335

DRAM Statistics
 CHANNEL 0
 RQ ROW_BUFFER_HIT:    1924026  ROW_BUFFER_MISS:    2189258
 DBUS_CONGESTED:       2387
 WQ ROW_BUFFER_HIT:     532254  ROW_BUFFER_MISS:    2098471  FULL:      35569

 AVG_CONGESTED_CYCLE: 3
 All warmup complete: 2
Channel 0 Bank busy for read cycles: 0
Channel 0 Bank busy for write cycles: 0
Channel 0
Rank 0
0banks busy for read cycles: 153928389
0banks busy for write cycles: 238905
1banks busy for read cycles: 44631383
1banks busy for write cycles: 30166883
2banks busy for read cycles: 21796858
2banks busy for write cycles: 15008790
3banks busy for read cycles: 17460423
3banks busy for write cycles: 8443318
4banks busy for read cycles: 6665793
4banks busy for write cycles: 5603075
5banks busy for read cycles: 5287749
5banks busy for write cycles: 4236461
6banks busy for read cycles: 5884682
6banks busy for write cycles: 3960348
7banks busy for read cycles: 8407807
7banks busy for write cycles: 6350527
8banks busy for read cycles: 17887637
8banks busy for write cycles: 33182328

CPU 0 Branch Prediction Accuracy: 99.9446% MPKI: 0.08472 Average ROB Occupancy at Mispredict: 119.331
Branch types
NOT_BRANCH: 169425261 84.7126%
BRANCH_DIRECT_JUMP: 1658707 0.829353%
BRANCH_INDIRECT: 9991440 4.99572%
BRANCH_CONDITIONAL: 12080660 6.04033%
BRANCH_DIRECT_CALL: 2824055 1.41203%
BRANCH_INDIRECT_CALL: 597965 0.298982%
BRANCH_RETURN: 3421961 1.71098%
BRANCH_OTHER: 0 0%

DRAM PAGES: 1048576
Allocated PAGES: 9063
