
*** ChampSim Multicore Out-of-Order Simulator ***

Warmup Instructions: 50000000
Simulation Instructions: 200000000
Number of CPUs: 1
LLC sets: 2048
LLC ways: 16
Off-chip DRAM Size: 4096 MB Channels: 1 Width: 64-bit Data Rate: 6400 MT/s
CPU 0 runs traces/spec2k17/srv_44.champsimtrace.xz
.xz
BTB has LRU replacement policy
ITLB has LRU replacement policy
DTLB has LRU replacement policy
STLB has LRU replacement policy
L1I has LRU replacement policy
CPU 0 L2C next line prefetcher
L1D has LRU replacement policy
Initialize SRRIP state for L2C
Initialize DRRIP state for LLC
Heartbeat CPU 0 instructions: 10000001 cycles: 2957232 heartbeat IPC: 3.38154 cumulative IPC: 3.38154 (Simulation time: 0 hr 0 min 36 sec) 
Heartbeat CPU 0 instructions: 20000000 cycles: 5908952 heartbeat IPC: 3.38785 cumulative IPC: 3.3847 (Simulation time: 0 hr 1 min 13 sec) 
Heartbeat CPU 0 instructions: 30000001 cycles: 8857473 heartbeat IPC: 3.39153 cumulative IPC: 3.38697 (Simulation time: 0 hr 1 min 49 sec) 
*** Reached end of trace for Core: 0 Repeating trace: traces/spec2k17/srv_44.champsimtrace.xz
Heartbeat CPU 0 instructions: 40000000 cycles: 11813701 heartbeat IPC: 3.38269 cumulative IPC: 3.3859 (Simulation time: 0 hr 2 min 25 sec) 
Heartbeat CPU 0 instructions: 50000003 cycles: 14761525 heartbeat IPC: 3.39233 cumulative IPC: 3.38718 (Simulation time: 0 hr 3 min 2 sec) 

Warmup complete CPU 0 instructions: 50000003 cycles: 14761525 (Simulation time: 0 hr 3 min 2 sec) 

Heartbeat CPU 0 instructions: 60000000 cycles: 53781194 heartbeat IPC: 0.256281 cumulative IPC: 0.256281 (Simulation time: 0 hr 4 min 4 sec) 
*** Reached end of trace for Core: 0 Repeating trace: traces/spec2k17/srv_44.champsimtrace.xz
Heartbeat CPU 0 instructions: 70000003 cycles: 91552881 heartbeat IPC: 0.264749 cumulative IPC: 0.260446 (Simulation time: 0 hr 5 min 7 sec) 
Heartbeat CPU 0 instructions: 80000000 cycles: 131213722 heartbeat IPC: 0.252138 cumulative IPC: 0.257616 (Simulation time: 0 hr 6 min 13 sec) 
Heartbeat CPU 0 instructions: 90000003 cycles: 170161448 heartbeat IPC: 0.256754 cumulative IPC: 0.2574 (Simulation time: 0 hr 7 min 18 sec) 
*** Reached end of trace for Core: 0 Repeating trace: traces/spec2k17/srv_44.champsimtrace.xz
Heartbeat CPU 0 instructions: 100000002 cycles: 207711995 heartbeat IPC: 0.266308 cumulative IPC: 0.259134 (Simulation time: 0 hr 8 min 21 sec) 
Heartbeat CPU 0 instructions: 110000000 cycles: 247409258 heartbeat IPC: 0.251906 cumulative IPC: 0.257901 (Simulation time: 0 hr 9 min 25 sec) 
Heartbeat CPU 0 instructions: 120000002 cycles: 286252961 heartbeat IPC: 0.257442 cumulative IPC: 0.257835 (Simulation time: 0 hr 10 min 28 sec) 
*** Reached end of trace for Core: 0 Repeating trace: traces/spec2k17/srv_44.champsimtrace.xz
Heartbeat CPU 0 instructions: 130000001 cycles: 324663635 heartbeat IPC: 0.260344 cumulative IPC: 0.258146 (Simulation time: 0 hr 11 min 28 sec) 
Heartbeat CPU 0 instructions: 140000000 cycles: 363839491 heartbeat IPC: 0.255259 cumulative IPC: 0.257822 (Simulation time: 0 hr 12 min 31 sec) 
Heartbeat CPU 0 instructions: 150000000 cycles: 402743990 heartbeat IPC: 0.25704 cumulative IPC: 0.257744 (Simulation time: 0 hr 13 min 32 sec) 
*** Reached end of trace for Core: 0 Repeating trace: traces/spec2k17/srv_44.champsimtrace.xz
Heartbeat CPU 0 instructions: 160000000 cycles: 441084056 heartbeat IPC: 0.260824 cumulative IPC: 0.258021 (Simulation time: 0 hr 14 min 38 sec) 
Heartbeat CPU 0 instructions: 170000000 cycles: 480093237 heartbeat IPC: 0.25635 cumulative IPC: 0.257881 (Simulation time: 0 hr 15 min 42 sec) 
Heartbeat CPU 0 instructions: 180000001 cycles: 518969611 heartbeat IPC: 0.257226 cumulative IPC: 0.25783 (Simulation time: 0 hr 16 min 44 sec) 
*** Reached end of trace for Core: 0 Repeating trace: traces/spec2k17/srv_44.champsimtrace.xz
Heartbeat CPU 0 instructions: 190000000 cycles: 557442651 heartbeat IPC: 0.259922 cumulative IPC: 0.257978 (Simulation time: 0 hr 17 min 44 sec) 
Heartbeat CPU 0 instructions: 200000000 cycles: 596419930 heartbeat IPC: 0.25656 cumulative IPC: 0.257883 (Simulation time: 0 hr 18 min 46 sec) 
Heartbeat CPU 0 instructions: 210000000 cycles: 635348825 heartbeat IPC: 0.256879 cumulative IPC: 0.25782 (Simulation time: 0 hr 19 min 46 sec) 
*** Reached end of trace for Core: 0 Repeating trace: traces/spec2k17/srv_44.champsimtrace.xz
Heartbeat CPU 0 instructions: 220000000 cycles: 674285217 heartbeat IPC: 0.256829 cumulative IPC: 0.257762 (Simulation time: 0 hr 20 min 48 sec) 
Heartbeat CPU 0 instructions: 230000000 cycles: 712737253 heartbeat IPC: 0.260064 cumulative IPC: 0.257889 (Simulation time: 0 hr 21 min 48 sec) 
Heartbeat CPU 0 instructions: 240000003 cycles: 751708173 heartbeat IPC: 0.256602 cumulative IPC: 0.257821 (Simulation time: 0 hr 22 min 53 sec) 
*** Reached end of trace for Core: 0 Repeating trace: traces/spec2k17/srv_44.champsimtrace.xz
Heartbeat CPU 0 instructions: 250000000 cycles: 790492073 heartbeat IPC: 0.257839 cumulative IPC: 0.257821 (Simulation time: 0 hr 23 min 56 sec) 
Finished CPU 0 instructions: 200000000 cycles: 775730564 cumulative IPC: 0.257821 (Simulation time: 0 hr 23 min 56 sec) 

ChampSim completed all CPUs

Region of Interest Statistics

CPU 0 cumulative IPC: 0.257821 instructions: 200000000 cycles: 775730564
ITLB TOTAL     ACCESS:   35673365  HIT:   33102338  MISS:    2571027  HIT %:    92.7929  MISS %:    7.20713   MPKI: 12.8551
ITLB LOAD TRANSLATION ACCESS:   35673365  HIT:   33102338  MISS:    2571027  HIT %:    92.7929  MISS %:    7.20713   MPKI: 12.8551
ITLB PREFETCH  REQUESTED:          0  ISSUED:          0  USEFUL:          0  USELESS:          0
ITLB USEFUL LOAD PREFETCHES:          0 PREFETCH ISSUED TO LOWER LEVEL:          0  ACCURACY: -nan
ITLB TIMELY PREFETCHES:          0 LATE PREFETCHES: 0 DROPPED PREFETCHES: 0
ITLB PREFETCHES SAME FILL-ORIGIN LEVEL: 0 DIFFERENT FILL-ORIGIN LEVEL: 0
ITLB AVERAGE MISS LATENCY: 9.33716 cycles
ITLB RQ	ACCESS:   42645025	FORWARD:          0	MERGED:    6281726	TO_CACHE:   36363299

DTLB TOTAL     ACCESS:   48941678  HIT:   46650753  MISS:    2290925  HIT %:    95.3191  MISS %:    4.68093   MPKI: 11.4546
DTLB LOAD TRANSLATION ACCESS:   48941678  HIT:   46650753  MISS:    2290925  HIT %:    95.3191  MISS %:    4.68093   MPKI: 11.4546
DTLB PREFETCH  REQUESTED:          0  ISSUED:          0  USEFUL:          0  USELESS:          0
DTLB USEFUL LOAD PREFETCHES:          0 PREFETCH ISSUED TO LOWER LEVEL:          0  ACCURACY: -nan
DTLB TIMELY PREFETCHES:          0 LATE PREFETCHES: 0 DROPPED PREFETCHES: 0
DTLB PREFETCHES SAME FILL-ORIGIN LEVEL: 0 DIFFERENT FILL-ORIGIN LEVEL: 0
DTLB AVERAGE MISS LATENCY: 12.1157 cycles
DTLB RQ	ACCESS:   65580978	FORWARD:          0	MERGED:   16499230	TO_CACHE:   49081748

STLB TOTAL     ACCESS:    8407236  HIT:    8305355  MISS:     101881  HIT %:    98.7882  MISS %:    1.21183   MPKI: 0.509405
STLB LOAD TRANSLATION ACCESS:    4861952  HIT:    4762225  MISS:      99727  HIT %:    97.9488  MISS %:    2.05117   MPKI: 0.498635
STLB TRANSLATION FROM L1D PREFETCHER ACCESS:    3545284  HIT:    3543130  MISS:       2154  HIT %:    99.9392  MISS %:  0.0607568   MPKI: 0.01077
STLB PREFETCH  REQUESTED:          0  ISSUED:          0  USEFUL:       1876  USELESS:        277
STLB USEFUL LOAD PREFETCHES:       1876 PREFETCH ISSUED TO LOWER LEVEL:          0  ACCURACY: inf
STLB TIMELY PREFETCHES:       1876 LATE PREFETCHES: 94 DROPPED PREFETCHES: 19824
STLB PREFETCHES SAME FILL-ORIGIN LEVEL: 0 DIFFERENT FILL-ORIGIN LEVEL: 0
STLB AVERAGE MISS LATENCY: 101738 cycles
STLB RQ	ACCESS:    8669337	FORWARD:          0	MERGED:     240966	TO_CACHE:    8428371

STLB Hit, L1D data hit: 0
STLB Hit, L2C data hit: 0
STLB Hit, LLC data hit: 0
STLB Hit, LLC data miss: 0
STLB STLB hints to L2: 0
L1D TOTAL     ACCESS:   65944548  HIT:   57994586  MISS:    7949962  HIT %:    87.9445  MISS %:    12.0555   MPKI: 39.7498
L1D LOAD      ACCESS:   40346087  HIT:   36642823  MISS:    3703264  HIT %:    90.8213  MISS %:    9.17874   MPKI: 18.5163
L1D RFO       ACCESS:   22416109  HIT:   20751044  MISS:    1665065  HIT %:     92.572  MISS %:    7.42798   MPKI: 8.32532
L1D PREFETCH  ACCESS:    3182352  HIT:     600719  MISS:    2581633  HIT %:    18.8766  MISS %:    81.1234   MPKI: 12.9082
AGUS PREFETCH L1 MISS: 0
L1D PREFETCH  REQUESTED:    7668655  ISSUED:    7668652  USEFUL:     533437  USELESS:    2048096
L1D USEFUL LOAD PREFETCHES:     533437 PREFETCH ISSUED TO LOWER LEVEL:    2649628  ACCURACY: 20.1325
L1D TIMELY PREFETCHES:     533437 LATE PREFETCHES: 60475 DROPPED PREFETCHES: 21085
L1D PREFETCHES SAME FILL-ORIGIN LEVEL: 2649628 DIFFERENT FILL-ORIGIN LEVEL: 0
L1D AVERAGE MISS LATENCY: 3.4249e+06 cycles
L1D RQ	ACCESS:   50873940	FORWARD:          0	MERGED:   10208539	TO_CACHE:   40507038
L1D WQ	ACCESS:   25234766	FORWARD:     160011	MERGED:     160826	TO_CACHE:   25073940
L1D PQ	ACCESS:    3861267	FORWARD:          0	MERGED:      52234	TO_CACHE:    3807385

L1D UNIQUE REGIONS ACCESSED: 0
L1D REGIONS CONFLICTS: 0
L1D Cross Page Prefetch Requests: 151725
L1D Same Page Prefetch Requests: 4667864
L1D ROI Sum of L1D PQ occupancy: 51065283
L1D PREFETCHES PUSHED FROM L2C: 0
L1I TOTAL     ACCESS:   41058966  HIT:   28731710  MISS:   12327256  HIT %:    69.9767  MISS %:    30.0233   MPKI: 61.6363
L1I LOAD      ACCESS:   41058966  HIT:   28731710  MISS:   12327256  HIT %:    69.9767  MISS %:    30.0233   MPKI: 61.6363
L1I PREFETCH  REQUESTED:          0  ISSUED:          0  USEFUL:          0  USELESS:          0
L1I USEFUL LOAD PREFETCHES:          0 PREFETCH ISSUED TO LOWER LEVEL:          0  ACCURACY: -nan
L1I TIMELY PREFETCHES:          0 LATE PREFETCHES: 0 DROPPED PREFETCHES: 0
L1I PREFETCHES SAME FILL-ORIGIN LEVEL: 0 DIFFERENT FILL-ORIGIN LEVEL: 0
L1I AVERAGE MISS LATENCY: 17.5333 cycles
L1I RQ	ACCESS:   59261297	FORWARD:          0	MERGED:   16616272	TO_CACHE:   42645025

BTB TOTAL     ACCESS:   30054223  HIT:   15654841  MISS:   14399382  HIT %:    52.0887  MISS %:    47.9113   MPKI: 71.9969
BTB BRANCH_DIRECT_JUMP	ACCESS:    2198667  HIT:    1142757  MISS:    1055910
BTB BRANCH_INDIRECT	ACCESS:   13251933  HIT:    7542739  MISS:    5709194
BTB BRANCH_CONDITIONAL	ACCESS:    4200886  HIT:    2961579  MISS:    1239307
BTB BRANCH_DIRECT_CALL	ACCESS:    3885240  HIT:    1990761  MISS:    1894479
BTB BRANCH_INDIRECT_CALL	ACCESS:    1316137  HIT:     536050  MISS:     780087
BTB BRANCH_RETURN	ACCESS:    5201360  HIT:    1480955  MISS:    3720405
BTB BRANCH_OTHER ACCESS:          0  HIT:          0  MISS:          0

L2C TOTAL     ACCESS:   23352314  HIT:   19147355  MISS:    4204959  HIT %:    81.9934  MISS %:    18.0066   MPKI: 21.0248
L2C LOAD      ACCESS:   15969921  HIT:   13634408  MISS:    2335513  HIT %:    85.3756  MISS %:    14.6244   MPKI: 11.6776
L2C DATA LOAD MPKI: 4.88753
L2C INSTRUCTION LOAD MPKI: 6.79003
L2C RFO       ACCESS:    1657483  HIT:     956304  MISS:     701179  HIT %:    57.6962  MISS %:    42.3038   MPKI: 3.5059
L2C PREFETCH  ACCESS:    2649621  HIT:    1724743  MISS:     924878  HIT %:     65.094  MISS %:     34.906   MPKI: 4.62439
AGUS PREFETCH L1 MISS: 0
L2C DATA PREFETCH MPKI: 4.62439
L2C INSTRUCTION PREFETCH MPKI: 0
L2C WRITEBACK ACCESS:    2871276  HIT:    2723983  MISS:     147293  HIT %:    94.8701  MISS %:    5.12988   MPKI: 0.736465
L2C LOAD TRANSLATION ACCESS:     162933  HIT:      77588  MISS:      85345  HIT %:    47.6196  MISS %:    52.3804   MPKI: 0.426725
L2C TRANSLATION FROM L1D PREFETCHER ACCESS:      41080  HIT:      30329  MISS:      10751  HIT %:    73.8291  MISS %:    26.1709   MPKI: 0.053755
L2C PREFETCH  REQUESTED:          0  ISSUED:          0  USEFUL:      57166  USELESS:     878335
L2C USEFUL LOAD PREFETCHES:      57166 PREFETCH ISSUED TO LOWER LEVEL:     924878  ACCURACY: 6.18092
L2C TIMELY PREFETCHES:      57166 LATE PREFETCHES: 0 DROPPED PREFETCHES: 0
L2C PREFETCHES SAME FILL-ORIGIN LEVEL: 0 DIFFERENT FILL-ORIGIN LEVEL: 0
L2C AVERAGE MISS LATENCY: 59.7622 cycles
L2C RQ	ACCESS:   17831604	FORWARD:          0	MERGED:          0	TO_CACHE:   17831418
L2C WQ	ACCESS:    2871276	FORWARD:        193	MERGED:          0	TO_CACHE:    2871276
L2C PQ	ACCESS:    2649628	FORWARD:          0	MERGED:          0	TO_CACHE:    2649621

L2C Instructions Evicting Data 707922
L2C Translations Evicting Data 75091
L2C Data Evicting Data 1875047
L2C Instructions Evicting Instructions 631004
L2C Translations Evicting Instructions 18066
L2C Data Evicting Instructions 657033
L2C Instructions Evicting Translations 19080
L2C Translations Evicting Translations 2939
L2C Data Evicting Translations 71484
L2C Dense regions hint from L2: 0
PSCL5 TOTAL     ACCESS:     121705  HIT:     121705  MISS:          0  HIT %:        100  MISS %:          0   MPKI: 0
PSCL5 LOAD TRANSLATION ACCESS:      99633  HIT:      99633  MISS:          0  HIT %:        100  MISS %:          0   MPKI: 0
PSCL5 TRANSLATION FROM L1D PREFETCHER ACCESS:      22072  HIT:      22072  MISS:          0  HIT %:        100  MISS %:          0   MPKI: 0
PSCL5 PREFETCH  REQUESTED:          0  ISSUED:          0  USEFUL:          0  USELESS:          0
PSCL5 USEFUL LOAD PREFETCHES:          0 PREFETCH ISSUED TO LOWER LEVEL:          0  ACCURACY: -nan
PSCL5 TIMELY PREFETCHES:          0 LATE PREFETCHES: 0 DROPPED PREFETCHES: 0
PSCL5 PREFETCHES SAME FILL-ORIGIN LEVEL: 0 DIFFERENT FILL-ORIGIN LEVEL: 0

PSCL4 TOTAL     ACCESS:     116605  HIT:     115280  MISS:       1325  HIT %:    98.8637  MISS %:    1.13631   MPKI: 0.006625
PSCL4 LOAD TRANSLATION ACCESS:      96293  HIT:      94968  MISS:       1325  HIT %:     98.624  MISS %:    1.37601   MPKI: 0.006625
PSCL4 TRANSLATION FROM L1D PREFETCHER ACCESS:      20312  HIT:      20312  MISS:          0  HIT %:        100  MISS %:          0   MPKI: 0
PSCL4 PREFETCH  REQUESTED:          0  ISSUED:          0  USEFUL:          0  USELESS:          0
PSCL4 USEFUL LOAD PREFETCHES:          0 PREFETCH ISSUED TO LOWER LEVEL:          0  ACCURACY: -nan
PSCL4 TIMELY PREFETCHES:          0 LATE PREFETCHES: 0 DROPPED PREFETCHES: 0
PSCL4 PREFETCHES SAME FILL-ORIGIN LEVEL: 0 DIFFERENT FILL-ORIGIN LEVEL: 0

PSCL3 TOTAL     ACCESS:     101250  HIT:      81641  MISS:      19609  HIT %:    80.6331  MISS %:    19.3669   MPKI: 0.098045
PSCL3 LOAD TRANSLATION ACCESS:      86145  HIT:      66536  MISS:      19609  HIT %:    77.2372  MISS %:    22.7628   MPKI: 0.098045
PSCL3 TRANSLATION FROM L1D PREFETCHER ACCESS:      15105  HIT:      15105  MISS:          0  HIT %:        100  MISS %:          0   MPKI: 0
PSCL3 PREFETCH  REQUESTED:          0  ISSUED:          0  USEFUL:          0  USELESS:          0
PSCL3 USEFUL LOAD PREFETCHES:          0 PREFETCH ISSUED TO LOWER LEVEL:          0  ACCURACY: -nan
PSCL3 TIMELY PREFETCHES:          0 LATE PREFETCHES: 0 DROPPED PREFETCHES: 0
PSCL3 PREFETCHES SAME FILL-ORIGIN LEVEL: 0 DIFFERENT FILL-ORIGIN LEVEL: 0

PSCL2 TOTAL     ACCESS:     108820  HIT:      65928  MISS:      42892  HIT %:    60.5845  MISS %:    39.4155   MPKI: 0.21446
PSCL2 LOAD TRANSLATION ACCESS:      99995  HIT:      57103  MISS:      42892  HIT %:    57.1059  MISS %:    42.8941   MPKI: 0.21446
PSCL2 TRANSLATION FROM L1D PREFETCHER ACCESS:       8825  HIT:       8825  MISS:          0  HIT %:        100  MISS %:          0   MPKI: 0
PSCL2 PREFETCH  REQUESTED:          0  ISSUED:          0  USEFUL:          0  USELESS:          0
PSCL2 USEFUL LOAD PREFETCHES:          0 PREFETCH ISSUED TO LOWER LEVEL:          0  ACCURACY: -nan
PSCL2 TIMELY PREFETCHES:          0 LATE PREFETCHES: 0 DROPPED PREFETCHES: 0
PSCL2 PREFETCHES SAME FILL-ORIGIN LEVEL: 0 DIFFERENT FILL-ORIGIN LEVEL: 0

LLC TOTAL     ACCESS:    5166511  HIT:    4560695  MISS:     605816  HIT %:    88.2742  MISS %:    11.7258   MPKI: 3.02908
LLC LOAD      ACCESS:    2335510  HIT:    2145302  MISS:     190208  HIT %:    91.8558  MISS %:    8.14417   MPKI: 0.95104
LLC RFO       ACCESS:     701169  HIT:     472228  MISS:     228941  HIT %:    67.3487  MISS %:    32.6513   MPKI: 1.14471
LLC PREFETCH  ACCESS:     924877  HIT:     757659  MISS:     167218  HIT %:      81.92  MISS %:      18.08   MPKI: 0.83609
AGUS PREFETCH L1 MISS: 0
LLC WRITEBACK ACCESS:    1108859  HIT:    1105408  MISS:       3451  HIT %:    99.6888  MISS %:   0.311221   MPKI: 0.017255
LLC LOAD TRANSLATION ACCESS:      85345  HIT:      70297  MISS:      15048  HIT %:     82.368  MISS %:     17.632   MPKI: 0.07524
LLC TRANSLATION FROM L1D PREFETCHER ACCESS:      10751  HIT:       9801  MISS:        950  HIT %:    91.1636  MISS %:    8.83639   MPKI: 0.00475
LLC PREFETCH  REQUESTED:          0  ISSUED:          0  USEFUL:      15230  USELESS:     154231
LLC USEFUL LOAD PREFETCHES:      15230 PREFETCH ISSUED TO LOWER LEVEL:     167218  ACCURACY: 9.10787
LLC TIMELY PREFETCHES:      15230 LATE PREFETCHES: 0 DROPPED PREFETCHES: 0
LLC PREFETCHES SAME FILL-ORIGIN LEVEL: 0 DIFFERENT FILL-ORIGIN LEVEL: 0
LLC AVERAGE MISS LATENCY: 213.871 cycles
LLC RQ	ACCESS:    3132789	FORWARD:          0	MERGED:          0	TO_CACHE:    3132776
LLC WQ	ACCESS:    1108859	FORWARD:         14	MERGED:          0	TO_CACHE:    1108859
LLC PQ	ACCESS:     924878	FORWARD:          0	MERGED:          0	TO_CACHE:     924877

LLC Dense regions hint to LLC: 0

RAW hits: 1457245
Loads Generated: 52331183
Loads sent to L1D: 50873940
Stores Generated: 25234767
Stores sent to L1D: 25234766
Major fault: 0 Minor fault: 5809
Allocated PAGES: 5809
CPU 0 L1d next line prefetcher final stats

-63,1116
-62,1190
-61,1060
-60,1110
-59,980
-58,1109
-57,1054
-56,1126
-55,1160
-54,1290
-53,1239
-52,1273
-51,971
-50,1064
-49,1125
-48,985
-47,1126
-46,1294
-45,1155
-44,1078
-43,1399
-42,1214
-41,1303
-40,1237
-39,1326
-38,1184
-37,1294
-36,1331
-35,1474
-34,1219
-33,1285
-32,1323
-31,1627
-30,1457
-29,1584
-28,1647
-27,1686
-26,1830
-25,1663
-24,1784
-23,1558
-22,1639
-21,1557
-20,1527
-19,1843
-18,2073
-17,1911
-16,2072
-15,2087
-14,2107
-13,2218
-12,2081
-11,2156
-10,2378
-9,2337
-8,2467
-7,2591
-6,2649
-5,2646
-4,3153
-3,3876
-2,4074
-1,5656
0,5853
1,6274
2,5735
3,5707
4,5215
5,4347
6,3977
7,3630
8,3543
9,3405
10,3092
11,3346
12,3383
13,2574
14,2737
15,2769
16,2693
17,2622
18,2420
19,2413
20,2534
21,2273
22,2467
23,2535
24,2252
25,2766
26,2417
27,2237
28,2328
29,2396
30,2086
31,2356
32,2158
33,2215
34,2012
35,2093
36,2332
37,1982
38,1873
39,2026
40,1970
41,1861
42,1757
43,1983
44,1765
45,1801
46,1945
47,1694
48,1832
49,1655
50,1671
51,1565
52,1965
53,1752
54,1866
55,1799
56,1816
57,1695
58,1930
59,1711
60,1842
61,1859
62,1935
63,1869

DRAM Statistics
 CHANNEL 0
 RQ ROW_BUFFER_HIT:     161595  ROW_BUFFER_MISS:     440769
 DBUS_CONGESTED:        234
 WQ ROW_BUFFER_HIT:      41007  ROW_BUFFER_MISS:     279682  FULL:          0

 AVG_CONGESTED_CYCLE: 4
 All warmup complete: 2
Channel 0 Bank busy for read cycles: 0
Channel 0 Bank busy for write cycles: 0
Channel 0
Rank 0
0banks busy for read cycles: 714205760
0banks busy for write cycles: 102035
1banks busy for read cycles: 23042538
1banks busy for write cycles: 13392493
2banks busy for read cycles: 8673116
2banks busy for write cycles: 4506887
3banks busy for read cycles: 1487288
3banks busy for write cycles: 1603581
4banks busy for read cycles: 573052
4banks busy for write cycles: 666008
5banks busy for read cycles: 177244
5banks busy for write cycles: 310942
6banks busy for read cycles: 295981
6banks busy for write cycles: 184273
7banks busy for read cycles: 378494
7banks busy for write cycles: 291607
8banks busy for read cycles: 2769510
8banks busy for write cycles: 3069756

CPU 0 Branch Prediction Accuracy: 99.9064% MPKI: 0.160865 Average ROB Occupancy at Mispredict: 44.6271
Branch types
NOT_BRANCH: 165643455 82.8217%
BRANCH_DIRECT_JUMP: 2198667 1.09933%
BRANCH_INDIRECT: 13251933 6.62597%
BRANCH_CONDITIONAL: 8502839 4.25142%
BRANCH_DIRECT_CALL: 3885240 1.94262%
BRANCH_INDIRECT_CALL: 1316137 0.658068%
BRANCH_RETURN: 5201360 2.60068%
BRANCH_OTHER: 0 0%

DRAM PAGES: 1048576
Allocated PAGES: 5809
