
*** ChampSim Multicore Out-of-Order Simulator ***

Warmup Instructions: 50000000
Simulation Instructions: 200000000
Number of CPUs: 1
LLC sets: 2048
LLC ways: 16
Off-chip DRAM Size: 4096 MB Channels: 1 Width: 64-bit Data Rate: 6400 MT/s
CPU 0 runs traces/spec2k17/srv_53.champsimtrace.xz
.xz
BTB has LRU replacement policy
ITLB has LRU replacement policy
DTLB has LRU replacement policy
STLB has LRU replacement policy
L1I has LRU replacement policy
CPU 0 L2C next line prefetcher
L1D has LRU replacement policy
Initialize SRRIP state for L2C
Initialize DRRIP state for LLC
Heartbeat CPU 0 instructions: 10000002 cycles: 2961300 heartbeat IPC: 3.3769 cumulative IPC: 3.3769 (Simulation time: 0 hr 0 min 31 sec) 
Heartbeat CPU 0 instructions: 20000002 cycles: 5914719 heartbeat IPC: 3.38591 cumulative IPC: 3.3814 (Simulation time: 0 hr 1 min 0 sec) 
Heartbeat CPU 0 instructions: 30000001 cycles: 8878764 heartbeat IPC: 3.37377 cumulative IPC: 3.37885 (Simulation time: 0 hr 1 min 30 sec) 
*** Reached end of trace for Core: 0 Repeating trace: traces/spec2k17/srv_53.champsimtrace.xz
Heartbeat CPU 0 instructions: 40000001 cycles: 11835144 heartbeat IPC: 3.38252 cumulative IPC: 3.37976 (Simulation time: 0 hr 2 min 0 sec) 
Heartbeat CPU 0 instructions: 50000002 cycles: 14789353 heartbeat IPC: 3.385 cumulative IPC: 3.38081 (Simulation time: 0 hr 2 min 29 sec) 

Warmup complete CPU 0 instructions: 50000002 cycles: 14789353 (Simulation time: 0 hr 2 min 29 sec) 

Heartbeat CPU 0 instructions: 60000000 cycles: 43730514 heartbeat IPC: 0.345529 cumulative IPC: 0.345529 (Simulation time: 0 hr 3 min 23 sec) 
*** Reached end of trace for Core: 0 Repeating trace: traces/spec2k17/srv_53.champsimtrace.xz
Heartbeat CPU 0 instructions: 70000001 cycles: 73484978 heartbeat IPC: 0.336084 cumulative IPC: 0.340741 (Simulation time: 0 hr 4 min 19 sec) 
Heartbeat CPU 0 instructions: 80000000 cycles: 102107408 heartbeat IPC: 0.349376 cumulative IPC: 0.343572 (Simulation time: 0 hr 5 min 12 sec) 
Heartbeat CPU 0 instructions: 90000000 cycles: 130624731 heartbeat IPC: 0.350664 cumulative IPC: 0.345318 (Simulation time: 0 hr 6 min 3 sec) 
*** Reached end of trace for Core: 0 Repeating trace: traces/spec2k17/srv_53.champsimtrace.xz
Heartbeat CPU 0 instructions: 100000001 cycles: 160856835 heartbeat IPC: 0.330774 cumulative IPC: 0.342308 (Simulation time: 0 hr 7 min 0 sec) 
Heartbeat CPU 0 instructions: 110000000 cycles: 189405044 heartbeat IPC: 0.350285 cumulative IPC: 0.343612 (Simulation time: 0 hr 7 min 53 sec) 
Heartbeat CPU 0 instructions: 120000000 cycles: 217436249 heartbeat IPC: 0.356745 cumulative IPC: 0.345428 (Simulation time: 0 hr 8 min 49 sec) 
*** Reached end of trace for Core: 0 Repeating trace: traces/spec2k17/srv_53.champsimtrace.xz
Heartbeat CPU 0 instructions: 130000002 cycles: 248242032 heartbeat IPC: 0.324614 cumulative IPC: 0.342682 (Simulation time: 0 hr 9 min 43 sec) 
Heartbeat CPU 0 instructions: 140000000 cycles: 276668174 heartbeat IPC: 0.351789 cumulative IPC: 0.34367 (Simulation time: 0 hr 10 min 36 sec) 
Heartbeat CPU 0 instructions: 150000003 cycles: 305074290 heartbeat IPC: 0.352037 cumulative IPC: 0.344489 (Simulation time: 0 hr 11 min 25 sec) 
*** Reached end of trace for Core: 0 Repeating trace: traces/spec2k17/srv_53.champsimtrace.xz
Heartbeat CPU 0 instructions: 160000003 cycles: 334929815 heartbeat IPC: 0.334946 cumulative IPC: 0.343599 (Simulation time: 0 hr 12 min 17 sec) 
Heartbeat CPU 0 instructions: 170000001 cycles: 363897761 heartbeat IPC: 0.345209 cumulative IPC: 0.343733 (Simulation time: 0 hr 13 min 8 sec) 
Heartbeat CPU 0 instructions: 180000003 cycles: 392561585 heartbeat IPC: 0.348872 cumulative IPC: 0.344123 (Simulation time: 0 hr 13 min 58 sec) 
*** Reached end of trace for Core: 0 Repeating trace: traces/spec2k17/srv_53.champsimtrace.xz
Heartbeat CPU 0 instructions: 190000000 cycles: 421279875 heartbeat IPC: 0.34821 cumulative IPC: 0.344411 (Simulation time: 0 hr 14 min 51 sec) 
Heartbeat CPU 0 instructions: 200000003 cycles: 451449119 heartbeat IPC: 0.331463 cumulative IPC: 0.343517 (Simulation time: 0 hr 15 min 46 sec) 
Heartbeat CPU 0 instructions: 210000001 cycles: 479858708 heartbeat IPC: 0.351994 cumulative IPC: 0.344035 (Simulation time: 0 hr 16 min 35 sec) 
*** Reached end of trace for Core: 0 Repeating trace: traces/spec2k17/srv_53.champsimtrace.xz
Heartbeat CPU 0 instructions: 220000000 cycles: 507181028 heartbeat IPC: 0.366001 cumulative IPC: 0.345254 (Simulation time: 0 hr 17 min 27 sec) 
Heartbeat CPU 0 instructions: 230000002 cycles: 538385079 heartbeat IPC: 0.320471 cumulative IPC: 0.343777 (Simulation time: 0 hr 18 min 20 sec) 
Heartbeat CPU 0 instructions: 240000002 cycles: 566847465 heartbeat IPC: 0.351341 cumulative IPC: 0.344167 (Simulation time: 0 hr 19 min 10 sec) 
*** Reached end of trace for Core: 0 Repeating trace: traces/spec2k17/srv_53.champsimtrace.xz
Heartbeat CPU 0 instructions: 250000002 cycles: 594481826 heartbeat IPC: 0.361868 cumulative IPC: 0.345011 (Simulation time: 0 hr 19 min 59 sec) 
Finished CPU 0 instructions: 200000000 cycles: 579692473 cumulative IPC: 0.345011 (Simulation time: 0 hr 19 min 59 sec) 

ChampSim completed all CPUs

Region of Interest Statistics

CPU 0 cumulative IPC: 0.345011 instructions: 200000000 cycles: 579692473
ITLB TOTAL     ACCESS:   34960141  HIT:   33697743  MISS:    1262398  HIT %:     96.389  MISS %:    3.61096   MPKI: 6.31199
ITLB LOAD TRANSLATION ACCESS:   34960141  HIT:   33697743  MISS:    1262398  HIT %:     96.389  MISS %:    3.61096   MPKI: 6.31199
ITLB PREFETCH  REQUESTED:          0  ISSUED:          0  USEFUL:          0  USELESS:          0
ITLB USEFUL LOAD PREFETCHES:          0 PREFETCH ISSUED TO LOWER LEVEL:          0  ACCURACY: -nan
ITLB TIMELY PREFETCHES:          0 LATE PREFETCHES: 0 DROPPED PREFETCHES: 0
ITLB PREFETCHES SAME FILL-ORIGIN LEVEL: 0 DIFFERENT FILL-ORIGIN LEVEL: 0
ITLB AVERAGE MISS LATENCY: 10.0368 cycles
ITLB RQ	ACCESS:   39934842	FORWARD:          0	MERGED:    4619855	TO_CACHE:   35314987

DTLB TOTAL     ACCESS:   35674436  HIT:   34418518  MISS:    1255918  HIT %:    96.4795  MISS %:     3.5205   MPKI: 6.27959
DTLB LOAD TRANSLATION ACCESS:   35674436  HIT:   34418518  MISS:    1255918  HIT %:    96.4795  MISS %:     3.5205   MPKI: 6.27959
DTLB PREFETCH  REQUESTED:          0  ISSUED:          0  USEFUL:          0  USELESS:          0
DTLB USEFUL LOAD PREFETCHES:          0 PREFETCH ISSUED TO LOWER LEVEL:          0  ACCURACY: -nan
DTLB TIMELY PREFETCHES:          0 LATE PREFETCHES: 0 DROPPED PREFETCHES: 0
DTLB PREFETCHES SAME FILL-ORIGIN LEVEL: 0 DIFFERENT FILL-ORIGIN LEVEL: 0
DTLB AVERAGE MISS LATENCY: 12.9548 cycles
DTLB RQ	ACCESS:   48370075	FORWARD:          0	MERGED:   12625127	TO_CACHE:   35744948

STLB TOTAL     ACCESS:    4344953  HIT:    4252383  MISS:      92570  HIT %:    97.8695  MISS %:    2.13052   MPKI: 0.46285
STLB LOAD TRANSLATION ACCESS:    2518316  HIT:    2426999  MISS:      91317  HIT %:    96.3739  MISS %:    3.62611   MPKI: 0.456585
STLB TRANSLATION FROM L1D PREFETCHER ACCESS:    1826637  HIT:    1825384  MISS:       1253  HIT %:    99.9314  MISS %:   0.068596   MPKI: 0.006265
STLB PREFETCH  REQUESTED:          0  ISSUED:          0  USEFUL:       1082  USELESS:        169
STLB USEFUL LOAD PREFETCHES:       1082 PREFETCH ISSUED TO LOWER LEVEL:          0  ACCURACY: inf
STLB TIMELY PREFETCHES:       1082 LATE PREFETCHES: 96 DROPPED PREFETCHES: 10372
STLB PREFETCHES SAME FILL-ORIGIN LEVEL: 0 DIFFERENT FILL-ORIGIN LEVEL: 0
STLB AVERAGE MISS LATENCY: 7594.28 cycles
STLB RQ	ACCESS:    4507123	FORWARD:          0	MERGED:     150978	TO_CACHE:    4356145

STLB Hit, L1D data hit: 0
STLB Hit, L2C data hit: 0
STLB Hit, LLC data hit: 0
STLB Hit, LLC data miss: 0
STLB STLB hints to L2: 0
L1D TOTAL     ACCESS:   48920135  HIT:   44784382  MISS:    4135753  HIT %:    91.5459  MISS %:    8.45409   MPKI: 20.6788
L1D LOAD      ACCESS:   27888814  HIT:   25971966  MISS:    1916848  HIT %:    93.1268  MISS %:    6.87318   MPKI: 9.58424
L1D RFO       ACCESS:   19287851  HIT:   18476373  MISS:     811478  HIT %:    95.7928  MISS %:     4.2072   MPKI: 4.05739
L1D PREFETCH  ACCESS:    1743470  HIT:     336043  MISS:    1407427  HIT %:    19.2744  MISS %:    80.7256   MPKI: 7.03714
AGUS PREFETCH L1 MISS: 0
L1D PREFETCH  REQUESTED:    4010950  ISSUED:    4010950  USEFUL:     312465  USELESS:    1095002
L1D USEFUL LOAD PREFETCHES:     312465 PREFETCH ISSUED TO LOWER LEVEL:    1431842  ACCURACY: 21.8226
L1D TIMELY PREFETCHES:     312465 LATE PREFETCHES: 21829 DROPPED PREFETCHES: 11228
L1D PREFETCHES SAME FILL-ORIGIN LEVEL: 1431842 DIFFERENT FILL-ORIGIN LEVEL: 0
L1D AVERAGE MISS LATENCY: 1.83102e+06 cycles
L1D RQ	ACCESS:   37434718	FORWARD:          0	MERGED:    9258188	TO_CACHE:   27996184
L1D WQ	ACCESS:   20546814	FORWARD:     181654	MERGED:     172923	TO_CACHE:   20373891
L1D PQ	ACCESS:    2022143	FORWARD:          0	MERGED:      32028	TO_CACHE:    1988807

L1D UNIQUE REGIONS ACCESSED: 0
L1D REGIONS CONFLICTS: 0
L1D Cross Page Prefetch Requests: 71727
L1D Same Page Prefetch Requests: 2459716
L1D ROI Sum of L1D PQ occupancy: 26382519
L1D PREFETCHES PUSHED FROM L2C: 0
L1I TOTAL     ACCESS:   38971555  HIT:   32548413  MISS:    6423142  HIT %:    83.5184  MISS %:    16.4816   MPKI: 32.1157
L1I LOAD      ACCESS:   38971555  HIT:   32548413  MISS:    6423142  HIT %:    83.5184  MISS %:    16.4816   MPKI: 32.1157
L1I PREFETCH  REQUESTED:          0  ISSUED:          0  USEFUL:          0  USELESS:          0
L1I USEFUL LOAD PREFETCHES:          0 PREFETCH ISSUED TO LOWER LEVEL:          0  ACCURACY: -nan
L1I TIMELY PREFETCHES:          0 LATE PREFETCHES: 0 DROPPED PREFETCHES: 0
L1I PREFETCHES SAME FILL-ORIGIN LEVEL: 0 DIFFERENT FILL-ORIGIN LEVEL: 0
L1I AVERAGE MISS LATENCY: 23.3531 cycles
L1I RQ	ACCESS:   62489727	FORWARD:          0	MERGED:   22554885	TO_CACHE:   39934842

BTB TOTAL     ACCESS:   34622254  HIT:   26061225  MISS:    8561029  HIT %:     75.273  MISS %:     24.727   MPKI: 42.8051
BTB BRANCH_DIRECT_JUMP	ACCESS:    1794172  HIT:    1215537  MISS:     578635
BTB BRANCH_INDIRECT	ACCESS:   10896773  HIT:    7278891  MISS:    3617882
BTB BRANCH_CONDITIONAL	ACCESS:   13847255  HIT:   13154489  MISS:     692766
BTB BRANCH_DIRECT_CALL	ACCESS:    3261049  HIT:    2171836  MISS:    1089213
BTB BRANCH_INDIRECT_CALL	ACCESS:     780950  HIT:     418247  MISS:     362703
BTB BRANCH_RETURN	ACCESS:    4042055  HIT:    1822225  MISS:    2219830
BTB BRANCH_OTHER ACCESS:          0  HIT:          0  MISS:          0

L2C TOTAL     ACCESS:   12271310  HIT:    8355442  MISS:    3915868  HIT %:    68.0892  MISS %:    31.9108   MPKI: 19.5793
L2C LOAD      ACCESS:    8318136  HIT:    5671765  MISS:    2646371  HIT %:    68.1855  MISS %:    31.8145   MPKI: 13.2319
L2C DATA LOAD MPKI: 3.52654
L2C INSTRUCTION LOAD MPKI: 9.70532
L2C RFO       ACCESS:     808865  HIT:     367103  MISS:     441762  HIT %:     45.385  MISS %:     54.615   MPKI: 2.20881
L2C PREFETCH  ACCESS:    1431839  HIT:     777576  MISS:     654263  HIT %:    54.3061  MISS %:    45.6939   MPKI: 3.27131
AGUS PREFETCH L1 MISS: 0
L2C DATA PREFETCH MPKI: 3.27131
L2C INSTRUCTION PREFETCH MPKI: 0
L2C WRITEBACK ACCESS:    1553013  HIT:    1462008  MISS:      91005  HIT %:    94.1401  MISS %:     5.8599   MPKI: 0.455025
L2C LOAD TRANSLATION ACCESS:     141415  HIT:      63625  MISS:      77790  HIT %:    44.9917  MISS %:    55.0083   MPKI: 0.38895
L2C TRANSLATION FROM L1D PREFETCHER ACCESS:      18042  HIT:      13365  MISS:       4677  HIT %:    74.0772  MISS %:    25.9228   MPKI: 0.023385
L2C PREFETCH  REQUESTED:          0  ISSUED:          0  USEFUL:      48143  USELESS:     610527
L2C USEFUL LOAD PREFETCHES:      48143 PREFETCH ISSUED TO LOWER LEVEL:     654263  ACCURACY: 7.35836
L2C TIMELY PREFETCHES:      48143 LATE PREFETCHES: 0 DROPPED PREFETCHES: 0
L2C PREFETCHES SAME FILL-ORIGIN LEVEL: 0 DIFFERENT FILL-ORIGIN LEVEL: 0
L2C AVERAGE MISS LATENCY: 42.2701 cycles
L2C RQ	ACCESS:    9286510	FORWARD:          0	MERGED:          0	TO_CACHE:    9286458
L2C WQ	ACCESS:    1553013	FORWARD:         55	MERGED:          0	TO_CACHE:    1553013
L2C PQ	ACCESS:    1431842	FORWARD:          0	MERGED:          0	TO_CACHE:    1431839

L2C Instructions Evicting Data 849753
L2C Translations Evicting Data 48658
L2C Data Evicting Data 946934
L2C Instructions Evicting Instructions 1059252
L2C Translations Evicting Instructions 31698
L2C Data Evicting Instructions 808034
L2C Instructions Evicting Translations 32058
L2C Translations Evicting Translations 2111
L2C Data Evicting Translations 46365
L2C Dense regions hint from L2: 0
PSCL5 TOTAL     ACCESS:     102942  HIT:     102942  MISS:          0  HIT %:        100  MISS %:          0   MPKI: 0
PSCL5 LOAD TRANSLATION ACCESS:      91221  HIT:      91221  MISS:          0  HIT %:        100  MISS %:          0   MPKI: 0
PSCL5 TRANSLATION FROM L1D PREFETCHER ACCESS:      11721  HIT:      11721  MISS:          0  HIT %:        100  MISS %:          0   MPKI: 0
PSCL5 PREFETCH  REQUESTED:          0  ISSUED:          0  USEFUL:          0  USELESS:          0
PSCL5 USEFUL LOAD PREFETCHES:          0 PREFETCH ISSUED TO LOWER LEVEL:          0  ACCURACY: -nan
PSCL5 TIMELY PREFETCHES:          0 LATE PREFETCHES: 0 DROPPED PREFETCHES: 0
PSCL5 PREFETCHES SAME FILL-ORIGIN LEVEL: 0 DIFFERENT FILL-ORIGIN LEVEL: 0

PSCL4 TOTAL     ACCESS:     101970  HIT:     101586  MISS:        384  HIT %:    99.6234  MISS %:   0.376581   MPKI: 0.00192
PSCL4 LOAD TRANSLATION ACCESS:      90533  HIT:      90149  MISS:        384  HIT %:    99.5758  MISS %:   0.424155   MPKI: 0.00192
PSCL4 TRANSLATION FROM L1D PREFETCHER ACCESS:      11437  HIT:      11437  MISS:          0  HIT %:        100  MISS %:          0   MPKI: 0
PSCL4 PREFETCH  REQUESTED:          0  ISSUED:          0  USEFUL:          0  USELESS:          0
PSCL4 USEFUL LOAD PREFETCHES:          0 PREFETCH ISSUED TO LOWER LEVEL:          0  ACCURACY: -nan
PSCL4 TIMELY PREFETCHES:          0 LATE PREFETCHES: 0 DROPPED PREFETCHES: 0
PSCL4 PREFETCHES SAME FILL-ORIGIN LEVEL: 0 DIFFERENT FILL-ORIGIN LEVEL: 0

PSCL3 TOTAL     ACCESS:      93858  HIT:      80962  MISS:      12896  HIT %:    86.2601  MISS %:    13.7399   MPKI: 0.06448
PSCL3 LOAD TRANSLATION ACCESS:      83850  HIT:      70954  MISS:      12896  HIT %:    84.6202  MISS %:    15.3798   MPKI: 0.06448
PSCL3 TRANSLATION FROM L1D PREFETCHER ACCESS:      10008  HIT:      10008  MISS:          0  HIT %:        100  MISS %:          0   MPKI: 0
PSCL3 PREFETCH  REQUESTED:          0  ISSUED:          0  USEFUL:          0  USELESS:          0
PSCL3 USEFUL LOAD PREFETCHES:          0 PREFETCH ISSUED TO LOWER LEVEL:          0  ACCURACY: -nan
PSCL3 TIMELY PREFETCHES:          0 LATE PREFETCHES: 0 DROPPED PREFETCHES: 0
PSCL3 PREFETCHES SAME FILL-ORIGIN LEVEL: 0 DIFFERENT FILL-ORIGIN LEVEL: 0

PSCL2 TOTAL     ACCESS:      97398  HIT:      59923  MISS:      37475  HIT %:    61.5239  MISS %:    38.4761   MPKI: 0.187375
PSCL2 LOAD TRANSLATION ACCESS:      91600  HIT:      54125  MISS:      37475  HIT %:    59.0884  MISS %:    40.9116   MPKI: 0.187375
PSCL2 TRANSLATION FROM L1D PREFETCHER ACCESS:       5798  HIT:       5798  MISS:          0  HIT %:        100  MISS %:          0   MPKI: 0
PSCL2 PREFETCH  REQUESTED:          0  ISSUED:          0  USEFUL:          0  USELESS:          0
PSCL2 USEFUL LOAD PREFETCHES:          0 PREFETCH ISSUED TO LOWER LEVEL:          0  ACCURACY: -nan
PSCL2 TIMELY PREFETCHES:          0 LATE PREFETCHES: 0 DROPPED PREFETCHES: 0
PSCL2 PREFETCHES SAME FILL-ORIGIN LEVEL: 0 DIFFERENT FILL-ORIGIN LEVEL: 0

LLC TOTAL     ACCESS:    4593128  HIT:    4309751  MISS:     283377  HIT %:    93.8304  MISS %:    6.16959   MPKI: 1.41688
LLC LOAD      ACCESS:    2646370  HIT:    2547505  MISS:      98865  HIT %:    96.2641  MISS %:    3.73587   MPKI: 0.494325
LLC RFO       ACCESS:     441758  HIT:     356905  MISS:      84853  HIT %:     80.792  MISS %:     19.208   MPKI: 0.424265
LLC PREFETCH  ACCESS:     654258  HIT:     564289  MISS:      89969  HIT %:    86.2487  MISS %:    13.7513   MPKI: 0.449845
AGUS PREFETCH L1 MISS: 0
LLC WRITEBACK ACCESS:     768275  HIT:     767137  MISS:       1138  HIT %:    99.8519  MISS %:   0.148124   MPKI: 0.00569
LLC LOAD TRANSLATION ACCESS:      77790  HIT:      69637  MISS:       8153  HIT %:    89.5192  MISS %:    10.4808   MPKI: 0.040765
LLC TRANSLATION FROM L1D PREFETCHER ACCESS:       4677  HIT:       4278  MISS:        399  HIT %:    91.4689  MISS %:    8.53111   MPKI: 0.001995
LLC PREFETCH  REQUESTED:          0  ISSUED:          0  USEFUL:      10652  USELESS:      79755
LLC USEFUL LOAD PREFETCHES:      10652 PREFETCH ISSUED TO LOWER LEVEL:      89969  ACCURACY: 11.8396
LLC TIMELY PREFETCHES:      10652 LATE PREFETCHES: 0 DROPPED PREFETCHES: 0
LLC PREFETCHES SAME FILL-ORIGIN LEVEL: 0 DIFFERENT FILL-ORIGIN LEVEL: 0
LLC AVERAGE MISS LATENCY: 179.184 cycles
LLC RQ	ACCESS:    3170600	FORWARD:          0	MERGED:          0	TO_CACHE:    3170595
LLC WQ	ACCESS:     768275	FORWARD:         10	MERGED:          0	TO_CACHE:     768275
LLC PQ	ACCESS:     654263	FORWARD:          0	MERGED:          0	TO_CACHE:     654258

LLC Dense regions hint to LLC: 0

RAW hits: 1863789
Loads Generated: 39298507
Loads sent to L1D: 37434718
Stores Generated: 20546814
Stores sent to L1D: 20546814
Major fault: 0 Minor fault: 4418
Allocated PAGES: 4418
CPU 0 L1d next line prefetcher final stats

-63,712
-62,641
-61,739
-60,650
-59,598
-58,595
-57,661
-56,576
-55,634
-54,681
-53,692
-52,725
-51,648
-50,692
-49,720
-48,670
-47,591
-46,738
-45,727
-44,756
-43,893
-42,842
-41,802
-40,773
-39,822
-38,759
-37,764
-36,814
-35,884
-34,883
-33,828
-32,888
-31,850
-30,896
-29,896
-28,883
-27,1006
-26,946
-25,810
-24,1051
-23,912
-22,937
-21,966
-20,951
-19,1053
-18,998
-17,1086
-16,1059
-15,1198
-14,1109
-13,1200
-12,1260
-11,1378
-10,1367
-9,1437
-8,1509
-7,1469
-6,1680
-5,1473
-4,1654
-3,2020
-2,2068
-1,2873
0,2742
1,3037
2,2812
3,2756
4,2521
5,2104
6,2156
7,1671
8,1707
9,1719
10,1609
11,1554
12,1500
13,1245
14,1271
15,1332
16,1357
17,1394
18,1261
19,1133
20,1275
21,1149
22,1123
23,1061
24,1145
25,1229
26,1121
27,1092
28,1136
29,1089
30,1059
31,1074
32,926
33,989
34,1016
35,1054
36,991
37,960
38,904
39,972
40,880
41,822
42,848
43,890
44,820
45,843
46,832
47,656
48,827
49,793
50,688
51,747
52,862
53,707
54,745
55,854
56,740
57,755
58,824
59,615
60,778
61,823
62,696
63,753

DRAM Statistics
 CHANNEL 0
 RQ ROW_BUFFER_HIT:      55081  ROW_BUFFER_MISS:     227155
 DBUS_CONGESTED:        100
 WQ ROW_BUFFER_HIT:      20228  ROW_BUFFER_MISS:     143236  FULL:          0

 AVG_CONGESTED_CYCLE: 4
 All warmup complete: 2
Channel 0 Bank busy for read cycles: 0
Channel 0 Bank busy for write cycles: 0
Channel 0
Rank 0
0banks busy for read cycles: 541458083
0banks busy for write cycles: 72916
1banks busy for read cycles: 14371478
1banks busy for write cycles: 9045144
2banks busy for read cycles: 6303676
2banks busy for write cycles: 3287435
3banks busy for read cycles: 1156946
3banks busy for write cycles: 1249771
4banks busy for read cycles: 412840
4banks busy for write cycles: 550067
5banks busy for read cycles: 94766
5banks busy for write cycles: 253249
6banks busy for read cycles: 72954
6banks busy for write cycles: 152968
7banks busy for read cycles: 89544
7banks busy for write cycles: 126377
8banks busy for read cycles: 409210
8banks busy for write cycles: 585050

CPU 0 Branch Prediction Accuracy: 99.6871% MPKI: 0.60392 Average ROB Occupancy at Mispredict: 13.6484
Branch types
NOT_BRANCH: 161399032 80.6995%
BRANCH_DIRECT_JUMP: 1794172 0.897086%
BRANCH_INDIRECT: 10896773 5.44839%
BRANCH_CONDITIONAL: 17825944 8.91297%
BRANCH_DIRECT_CALL: 3261049 1.63052%
BRANCH_INDIRECT_CALL: 780950 0.390475%
BRANCH_RETURN: 4042055 2.02103%
BRANCH_OTHER: 0 0%

DRAM PAGES: 1048576
Allocated PAGES: 4418
