
*** ChampSim Multicore Out-of-Order Simulator ***

Warmup Instructions: 50000000
Simulation Instructions: 200000000
Number of CPUs: 1
LLC sets: 2048
LLC ways: 16
Off-chip DRAM Size: 4096 MB Channels: 1 Width: 64-bit Data Rate: 6400 MT/s
CPU 0 runs traces/spec2k17/srv_73.champsimtrace.xz
.xz
BTB has LRU replacement policy
ITLB has LRU replacement policy
DTLB has LRU replacement policy
STLB has LRU replacement policy
L1I has LRU replacement policy
CPU 0 L2C next line prefetcher
L1D has LRU replacement policy
Initialize SRRIP state for L2C
Initialize DRRIP state for LLC
Heartbeat CPU 0 instructions: 10000002 cycles: 2862669 heartbeat IPC: 3.49324 cumulative IPC: 3.49324 (Simulation time: 0 hr 0 min 30 sec) 
Heartbeat CPU 0 instructions: 20000002 cycles: 5716301 heartbeat IPC: 3.50431 cumulative IPC: 3.49877 (Simulation time: 0 hr 0 min 59 sec) 
Heartbeat CPU 0 instructions: 30000001 cycles: 8572840 heartbeat IPC: 3.50074 cumulative IPC: 3.49942 (Simulation time: 0 hr 1 min 31 sec) 
*** Reached end of trace for Core: 0 Repeating trace: traces/spec2k17/srv_73.champsimtrace.xz
Heartbeat CPU 0 instructions: 40000002 cycles: 11428216 heartbeat IPC: 3.50217 cumulative IPC: 3.50011 (Simulation time: 0 hr 2 min 2 sec) 
Heartbeat CPU 0 instructions: 50000003 cycles: 14282321 heartbeat IPC: 3.50373 cumulative IPC: 3.50083 (Simulation time: 0 hr 2 min 32 sec) 

Warmup complete CPU 0 instructions: 50000003 cycles: 14282321 (Simulation time: 0 hr 2 min 32 sec) 

Heartbeat CPU 0 instructions: 60000001 cycles: 47943426 heartbeat IPC: 0.297079 cumulative IPC: 0.297079 (Simulation time: 0 hr 3 min 33 sec) 
*** Reached end of trace for Core: 0 Repeating trace: traces/spec2k17/srv_73.champsimtrace.xz
Heartbeat CPU 0 instructions: 70000003 cycles: 81356324 heartbeat IPC: 0.299286 cumulative IPC: 0.298178 (Simulation time: 0 hr 4 min 31 sec) 
Heartbeat CPU 0 instructions: 80000002 cycles: 114508106 heartbeat IPC: 0.301643 cumulative IPC: 0.299324 (Simulation time: 0 hr 5 min 34 sec) 
Heartbeat CPU 0 instructions: 90000001 cycles: 148099234 heartbeat IPC: 0.297698 cumulative IPC: 0.298916 (Simulation time: 0 hr 6 min 33 sec) 
*** Reached end of trace for Core: 0 Repeating trace: traces/spec2k17/srv_73.champsimtrace.xz
Heartbeat CPU 0 instructions: 100000001 cycles: 181506087 heartbeat IPC: 0.29934 cumulative IPC: 0.299001 (Simulation time: 0 hr 7 min 30 sec) 
Heartbeat CPU 0 instructions: 110000000 cycles: 214614886 heartbeat IPC: 0.302034 cumulative IPC: 0.299502 (Simulation time: 0 hr 8 min 29 sec) 
Heartbeat CPU 0 instructions: 120000000 cycles: 248009657 heartbeat IPC: 0.299448 cumulative IPC: 0.299494 (Simulation time: 0 hr 9 min 31 sec) 
*** Reached end of trace for Core: 0 Repeating trace: traces/spec2k17/srv_73.champsimtrace.xz
Heartbeat CPU 0 instructions: 130000003 cycles: 281420247 heartbeat IPC: 0.299306 cumulative IPC: 0.299471 (Simulation time: 0 hr 10 min 27 sec) 
Heartbeat CPU 0 instructions: 140000000 cycles: 314545613 heartbeat IPC: 0.301883 cumulative IPC: 0.299737 (Simulation time: 0 hr 11 min 24 sec) 
Heartbeat CPU 0 instructions: 150000000 cycles: 347824546 heartbeat IPC: 0.30049 cumulative IPC: 0.299812 (Simulation time: 0 hr 12 min 23 sec) 
*** Reached end of trace for Core: 0 Repeating trace: traces/spec2k17/srv_73.champsimtrace.xz
Heartbeat CPU 0 instructions: 160000001 cycles: 381357793 heartbeat IPC: 0.298212 cumulative IPC: 0.299666 (Simulation time: 0 hr 13 min 23 sec) 
Heartbeat CPU 0 instructions: 170000001 cycles: 414506644 heartbeat IPC: 0.30167 cumulative IPC: 0.299832 (Simulation time: 0 hr 14 min 20 sec) 
Heartbeat CPU 0 instructions: 180000001 cycles: 447613226 heartbeat IPC: 0.302055 cumulative IPC: 0.300002 (Simulation time: 0 hr 15 min 22 sec) 
*** Reached end of trace for Core: 0 Repeating trace: traces/spec2k17/srv_73.champsimtrace.xz
Heartbeat CPU 0 instructions: 190000001 cycles: 481311197 heartbeat IPC: 0.296754 cumulative IPC: 0.299767 (Simulation time: 0 hr 16 min 22 sec) 
Heartbeat CPU 0 instructions: 200000002 cycles: 514328118 heartbeat IPC: 0.302875 cumulative IPC: 0.299973 (Simulation time: 0 hr 17 min 24 sec) 
Heartbeat CPU 0 instructions: 210000000 cycles: 547472754 heartbeat IPC: 0.301708 cumulative IPC: 0.30008 (Simulation time: 0 hr 18 min 24 sec) 
*** Reached end of trace for Core: 0 Repeating trace: traces/spec2k17/srv_73.champsimtrace.xz
Heartbeat CPU 0 instructions: 220000000 cycles: 581082090 heartbeat IPC: 0.297536 cumulative IPC: 0.29993 (Simulation time: 0 hr 19 min 21 sec) 
Heartbeat CPU 0 instructions: 230000000 cycles: 614176744 heartbeat IPC: 0.302164 cumulative IPC: 0.300053 (Simulation time: 0 hr 20 min 22 sec) 
Heartbeat CPU 0 instructions: 240000001 cycles: 647274571 heartbeat IPC: 0.302135 cumulative IPC: 0.300162 (Simulation time: 0 hr 21 min 19 sec) 
Heartbeat CPU 0 instructions: 250000000 cycles: 680914645 heartbeat IPC: 0.297264 cumulative IPC: 0.300015 (Simulation time: 0 hr 22 min 21 sec) 
Finished CPU 0 instructions: 200000000 cycles: 666632328 cumulative IPC: 0.300015 (Simulation time: 0 hr 22 min 21 sec) 

ChampSim completed all CPUs

Region of Interest Statistics

CPU 0 cumulative IPC: 0.300015 instructions: 200000000 cycles: 666632328
ITLB TOTAL     ACCESS:   35572348  HIT:   33358791  MISS:    2213557  HIT %:    93.7773  MISS %:    6.22269   MPKI: 11.0678
ITLB LOAD TRANSLATION ACCESS:   35572348  HIT:   33358791  MISS:    2213557  HIT %:    93.7773  MISS %:    6.22269   MPKI: 11.0678
ITLB PREFETCH  REQUESTED:          0  ISSUED:          0  USEFUL:          0  USELESS:          0
ITLB USEFUL LOAD PREFETCHES:          0 PREFETCH ISSUED TO LOWER LEVEL:          0  ACCURACY: -nan
ITLB TIMELY PREFETCHES:          0 LATE PREFETCHES: 0 DROPPED PREFETCHES: 0
ITLB PREFETCHES SAME FILL-ORIGIN LEVEL: 0 DIFFERENT FILL-ORIGIN LEVEL: 0
ITLB AVERAGE MISS LATENCY: 9.26501 cycles
ITLB RQ	ACCESS:   41809518	FORWARD:          0	MERGED:    5706208	TO_CACHE:   36103310

DTLB TOTAL     ACCESS:   45362594  HIT:   43233703  MISS:    2128891  HIT %:    95.3069  MISS %:    4.69305   MPKI: 10.6445
DTLB LOAD TRANSLATION ACCESS:   45362594  HIT:   43233703  MISS:    2128891  HIT %:    95.3069  MISS %:    4.69305   MPKI: 10.6445
DTLB PREFETCH  REQUESTED:          0  ISSUED:          0  USEFUL:          0  USELESS:          0
DTLB USEFUL LOAD PREFETCHES:          0 PREFETCH ISSUED TO LOWER LEVEL:          0  ACCURACY: -nan
DTLB TIMELY PREFETCHES:          0 LATE PREFETCHES: 0 DROPPED PREFETCHES: 0
DTLB PREFETCHES SAME FILL-ORIGIN LEVEL: 0 DIFFERENT FILL-ORIGIN LEVEL: 0
DTLB AVERAGE MISS LATENCY: 10.8862 cycles
DTLB RQ	ACCESS:   60049902	FORWARD:          0	MERGED:   14628936	TO_CACHE:   45420966

STLB TOTAL     ACCESS:    7837264  HIT:    7771025  MISS:      66239  HIT %:    99.1548  MISS %:    0.84518   MPKI: 0.331195
STLB LOAD TRANSLATION ACCESS:    4342447  HIT:    4277366  MISS:      65081  HIT %:    98.5013  MISS %:    1.49872   MPKI: 0.325405
STLB TRANSLATION FROM L1D PREFETCHER ACCESS:    3494817  HIT:    3493659  MISS:       1158  HIT %:    99.9669  MISS %:  0.0331348   MPKI: 0.00579
STLB PREFETCH  REQUESTED:          0  ISSUED:          0  USEFUL:        844  USELESS:        315
STLB USEFUL LOAD PREFETCHES:        844 PREFETCH ISSUED TO LOWER LEVEL:          0  ACCURACY: inf
STLB TIMELY PREFETCHES:        844 LATE PREFETCHES: 245 DROPPED PREFETCHES: 27689
STLB PREFETCHES SAME FILL-ORIGIN LEVEL: 0 DIFFERENT FILL-ORIGIN LEVEL: 0
STLB AVERAGE MISS LATENCY: 57543.3 cycles
STLB RQ	ACCESS:    8219187	FORWARD:          0	MERGED:     351005	TO_CACHE:    7868182

STLB Hit, L1D data hit: 0
STLB Hit, L2C data hit: 0
STLB Hit, LLC data hit: 0
STLB Hit, LLC data miss: 0
STLB STLB hints to L2: 0
L1D TOTAL     ACCESS:   61385774  HIT:   53603886  MISS:    7781888  HIT %:     87.323  MISS %:     12.677   MPKI: 38.9094
L1D LOAD      ACCESS:   33560339  HIT:   29746344  MISS:    3813995  HIT %:    88.6354  MISS %:    11.3646   MPKI: 19.07
L1D RFO       ACCESS:   24609515  HIT:   23429712  MISS:    1179803  HIT %:    95.2059  MISS %:    4.79409   MPKI: 5.89902
L1D PREFETCH  ACCESS:    3215920  HIT:     427830  MISS:    2788090  HIT %:    13.3035  MISS %:    86.6965   MPKI: 13.9405
AGUS PREFETCH L1 MISS: 0
L1D PREFETCH  REQUESTED:    7816131  ISSUED:    7816131  USEFUL:     655119  USELESS:    2132898
L1D USEFUL LOAD PREFETCHES:     655119 PREFETCH ISSUED TO LOWER LEVEL:    3160523  ACCURACY: 20.7282
L1D TIMELY PREFETCHES:     655119 LATE PREFETCHES: 371149 DROPPED PREFETCHES: 31683
L1D PREFETCHES SAME FILL-ORIGIN LEVEL: 3160523 DIFFERENT FILL-ORIGIN LEVEL: 0
L1D AVERAGE MISS LATENCY: 1.6426e+07 cycles
L1D RQ	ACCESS:   46242239	FORWARD:          0	MERGED:   12230779	TO_CACHE:   33691861
L1D WQ	ACCESS:   26508991	FORWARD:     319644	MERGED:     150950	TO_CACHE:   26358041
L1D PQ	ACCESS:    3939391	FORWARD:          0	MERGED:      62606	TO_CACHE:    3876740

L1D UNIQUE REGIONS ACCESSED: 0
L1D REGIONS CONFLICTS: 0
L1D Cross Page Prefetch Requests: 145840
L1D Same Page Prefetch Requests: 4734605
L1D ROI Sum of L1D PQ occupancy: 50886135
L1D PREFETCHES PUSHED FROM L2C: 0
L1I TOTAL     ACCESS:   40115345  HIT:   28896318  MISS:   11219027  HIT %:    72.0331  MISS %:    27.9669   MPKI: 56.0951
L1I LOAD      ACCESS:   40115345  HIT:   28896318  MISS:   11219027  HIT %:    72.0331  MISS %:    27.9669   MPKI: 56.0951
L1I PREFETCH  REQUESTED:          0  ISSUED:          0  USEFUL:          0  USELESS:          0
L1I USEFUL LOAD PREFETCHES:          0 PREFETCH ISSUED TO LOWER LEVEL:          0  ACCURACY: -nan
L1I TIMELY PREFETCHES:          0 LATE PREFETCHES: 0 DROPPED PREFETCHES: 0
L1I PREFETCHES SAME FILL-ORIGIN LEVEL: 0 DIFFERENT FILL-ORIGIN LEVEL: 0
L1I AVERAGE MISS LATENCY: 17.1861 cycles
L1I RQ	ACCESS:   58518236	FORWARD:          0	MERGED:   16708718	TO_CACHE:   41809518

BTB TOTAL     ACCESS:   30522117  HIT:   18157448  MISS:   12364669  HIT %:    59.4895  MISS %:    40.5105   MPKI: 61.8233
BTB BRANCH_DIRECT_JUMP	ACCESS:    2028929  HIT:    1233064  MISS:     795865
BTB BRANCH_INDIRECT	ACCESS:   12036857  HIT:    7263314  MISS:    4773543
BTB BRANCH_CONDITIONAL	ACCESS:    7346113  HIT:    6103114  MISS:    1242999
BTB BRANCH_DIRECT_CALL	ACCESS:    3832241  HIT:    1828799  MISS:    2003442
BTB BRANCH_INDIRECT_CALL	ACCESS:     722842  HIT:     356547  MISS:     366295
BTB BRANCH_RETURN	ACCESS:    4555135  HIT:    1372610  MISS:    3182525
BTB BRANCH_OTHER ACCESS:          0  HIT:          0  MISS:          0

L2C TOTAL     ACCESS:   21531814  HIT:   19079385  MISS:    2452429  HIT %:    88.6102  MISS %:    11.3898   MPKI: 12.2621
L2C LOAD      ACCESS:   14661862  HIT:   13107442  MISS:    1554420  HIT %:    89.3982  MISS %:    10.6018   MPKI: 7.7721
L2C DATA LOAD MPKI: 2.07872
L2C INSTRUCTION LOAD MPKI: 5.69338
L2C RFO       ACCESS:    1178516  HIT:    1044458  MISS:     134058  HIT %:    88.6248  MISS %:    11.3752   MPKI: 0.67029
L2C PREFETCH  ACCESS:    3160164  HIT:    2485926  MISS:     674238  HIT %:    78.6645  MISS %:    21.3355   MPKI: 3.37119
AGUS PREFETCH L1 MISS: 0
L2C DATA PREFETCH MPKI: 3.37119
L2C INSTRUCTION PREFETCH MPKI: 0
L2C WRITEBACK ACCESS:    2381901  HIT:    2358944  MISS:      22957  HIT %:    99.0362  MISS %:    0.96381   MPKI: 0.114785
L2C LOAD TRANSLATION ACCESS:      97917  HIT:      35927  MISS:      61990  HIT %:    36.6913  MISS %:    63.3087   MPKI: 0.30995
L2C TRANSLATION FROM L1D PREFETCHER ACCESS:      51454  HIT:      46688  MISS:       4766  HIT %:    90.7374  MISS %:    9.26264   MPKI: 0.02383
L2C PREFETCH  REQUESTED:          0  ISSUED:          0  USEFUL:      20651  USELESS:     658442
L2C USEFUL LOAD PREFETCHES:      20651 PREFETCH ISSUED TO LOWER LEVEL:     674238  ACCURACY: 3.06287
L2C TIMELY PREFETCHES:      20651 LATE PREFETCHES: 0 DROPPED PREFETCHES: 0
L2C PREFETCHES SAME FILL-ORIGIN LEVEL: 0 DIFFERENT FILL-ORIGIN LEVEL: 0
L2C AVERAGE MISS LATENCY: 42.0405 cycles
L2C RQ	ACCESS:   15989758	FORWARD:          0	MERGED:          0	TO_CACHE:   15989747
L2C WQ	ACCESS:    2381901	FORWARD:        372	MERGED:          0	TO_CACHE:    2381901
L2C PQ	ACCESS:    3160523	FORWARD:          0	MERGED:          0	TO_CACHE:    3160162

L2C Instructions Evicting Data 486159
L2C Translations Evicting Data 43582
L2C Data Evicting Data 705501
L2C Instructions Evicting Instructions 633606
L2C Translations Evicting Instructions 19268
L2C Data Evicting Instructions 474950
L2C Instructions Evicting Translations 18911
L2C Translations Evicting Translations 3906
L2C Data Evicting Translations 43589
L2C Dense regions hint from L2: 0
PSCL5 TOTAL     ACCESS:      93928  HIT:      93928  MISS:          0  HIT %:        100  MISS %:          0   MPKI: 0
PSCL5 LOAD TRANSLATION ACCESS:      64836  HIT:      64836  MISS:          0  HIT %:        100  MISS %:          0   MPKI: 0
PSCL5 TRANSLATION FROM L1D PREFETCHER ACCESS:      29092  HIT:      29092  MISS:          0  HIT %:        100  MISS %:          0   MPKI: 0
PSCL5 PREFETCH  REQUESTED:          0  ISSUED:          0  USEFUL:          0  USELESS:          0
PSCL5 USEFUL LOAD PREFETCHES:          0 PREFETCH ISSUED TO LOWER LEVEL:          0  ACCURACY: -nan
PSCL5 TIMELY PREFETCHES:          0 LATE PREFETCHES: 0 DROPPED PREFETCHES: 0
PSCL5 PREFETCHES SAME FILL-ORIGIN LEVEL: 0 DIFFERENT FILL-ORIGIN LEVEL: 0

PSCL4 TOTAL     ACCESS:      81554  HIT:      80502  MISS:       1052  HIT %:    98.7101  MISS %:    1.28994   MPKI: 0.00526
PSCL4 LOAD TRANSLATION ACCESS:      62966  HIT:      61914  MISS:       1052  HIT %:    98.3293  MISS %:    1.67074   MPKI: 0.00526
PSCL4 TRANSLATION FROM L1D PREFETCHER ACCESS:      18588  HIT:      18588  MISS:          0  HIT %:        100  MISS %:          0   MPKI: 0
PSCL4 PREFETCH  REQUESTED:          0  ISSUED:          0  USEFUL:          0  USELESS:          0
PSCL4 USEFUL LOAD PREFETCHES:          0 PREFETCH ISSUED TO LOWER LEVEL:          0  ACCURACY: -nan
PSCL4 TIMELY PREFETCHES:          0 LATE PREFETCHES: 0 DROPPED PREFETCHES: 0
PSCL4 PREFETCHES SAME FILL-ORIGIN LEVEL: 0 DIFFERENT FILL-ORIGIN LEVEL: 0

PSCL3 TOTAL     ACCESS:      93014  HIT:      91962  MISS:       1052  HIT %:     98.869  MISS %:    1.13101   MPKI: 0.00526
PSCL3 LOAD TRANSLATION ACCESS:      64383  HIT:      63331  MISS:       1052  HIT %:     98.366  MISS %:    1.63397   MPKI: 0.00526
PSCL3 TRANSLATION FROM L1D PREFETCHER ACCESS:      28631  HIT:      28631  MISS:          0  HIT %:        100  MISS %:          0   MPKI: 0
PSCL3 PREFETCH  REQUESTED:          0  ISSUED:          0  USEFUL:          0  USELESS:          0
PSCL3 USEFUL LOAD PREFETCHES:          0 PREFETCH ISSUED TO LOWER LEVEL:          0  ACCURACY: -nan
PSCL3 TIMELY PREFETCHES:          0 LATE PREFETCHES: 0 DROPPED PREFETCHES: 0
PSCL3 PREFETCHES SAME FILL-ORIGIN LEVEL: 0 DIFFERENT FILL-ORIGIN LEVEL: 0

PSCL2 TOTAL     ACCESS:      72449  HIT:      40983  MISS:      31466  HIT %:    56.5681  MISS %:    43.4319   MPKI: 0.15733
PSCL2 LOAD TRANSLATION ACCESS:      65143  HIT:      33677  MISS:      31466  HIT %:     51.697  MISS %:     48.303   MPKI: 0.15733
PSCL2 TRANSLATION FROM L1D PREFETCHER ACCESS:       7306  HIT:       7306  MISS:          0  HIT %:        100  MISS %:          0   MPKI: 0
PSCL2 PREFETCH  REQUESTED:          0  ISSUED:          0  USEFUL:          0  USELESS:          0
PSCL2 USEFUL LOAD PREFETCHES:          0 PREFETCH ISSUED TO LOWER LEVEL:          0  ACCURACY: -nan
PSCL2 TIMELY PREFETCHES:          0 LATE PREFETCHES: 0 DROPPED PREFETCHES: 0
PSCL2 PREFETCHES SAME FILL-ORIGIN LEVEL: 0 DIFFERENT FILL-ORIGIN LEVEL: 0

LLC TOTAL     ACCESS:    2616204  HIT:    2406980  MISS:     209224  HIT %:    92.0028  MISS %:    7.99724   MPKI: 1.04612
LLC LOAD      ACCESS:    1554416  HIT:    1478621  MISS:      75795  HIT %:    95.1239  MISS %:    4.87611   MPKI: 0.378975
LLC RFO       ACCESS:     134046  HIT:     109985  MISS:      24061  HIT %:    82.0502  MISS %:    17.9498   MPKI: 0.120305
LLC PREFETCH  ACCESS:     674230  HIT:     572031  MISS:     102199  HIT %:    84.8421  MISS %:    15.1579   MPKI: 0.510995
AGUS PREFETCH L1 MISS: 0
LLC WRITEBACK ACCESS:     186756  HIT:     186007  MISS:        749  HIT %:    99.5989  MISS %:   0.401058   MPKI: 0.003745
LLC LOAD TRANSLATION ACCESS:      61990  HIT:      55740  MISS:       6250  HIT %:    89.9177  MISS %:    10.0823   MPKI: 0.03125
LLC TRANSLATION FROM L1D PREFETCHER ACCESS:       4766  HIT:       4596  MISS:        170  HIT %:    96.4331  MISS %:    3.56693   MPKI: 0.00085
LLC PREFETCH  REQUESTED:          0  ISSUED:          0  USEFUL:       1962  USELESS:     100104
LLC USEFUL LOAD PREFETCHES:       1962 PREFETCH ISSUED TO LOWER LEVEL:     102199  ACCURACY: 1.91978
LLC TIMELY PREFETCHES:       1962 LATE PREFETCHES: 0 DROPPED PREFETCHES: 0
LLC PREFETCHES SAME FILL-ORIGIN LEVEL: 0 DIFFERENT FILL-ORIGIN LEVEL: 0
LLC AVERAGE MISS LATENCY: 144.425 cycles
LLC RQ	ACCESS:    1755234	FORWARD:          0	MERGED:          0	TO_CACHE:    1755218
LLC WQ	ACCESS:     186756	FORWARD:         24	MERGED:          0	TO_CACHE:     186756
LLC PQ	ACCESS:     674238	FORWARD:          0	MERGED:          0	TO_CACHE:     674230

LLC Dense regions hint to LLC: 0

RAW hits: 1448447
Loads Generated: 47690682
Loads sent to L1D: 46242239
Stores Generated: 26508983
Stores sent to L1D: 26508991
Major fault: 0 Minor fault: 4510
Allocated PAGES: 4510
CPU 0 L1d next line prefetcher final stats

-63,1102
-62,1097
-61,1116
-60,1168
-59,959
-58,953
-57,1091
-56,1028
-55,1026
-54,1097
-53,1087
-52,1275
-51,1247
-50,1225
-49,1165
-48,1158
-47,1078
-46,1262
-45,1138
-44,1261
-43,1287
-42,1434
-41,1299
-40,1546
-39,1318
-38,1421
-37,1352
-36,1580
-35,1360
-34,1479
-33,1516
-32,1544
-31,1512
-30,1719
-29,1504
-28,1424
-27,1603
-26,1558
-25,1554
-24,1651
-23,1665
-22,1677
-21,1765
-20,1616
-19,1650
-18,1809
-17,1732
-16,2070
-15,1826
-14,2116
-13,2015
-12,2104
-11,2109
-10,2167
-9,2530
-8,2446
-7,2295
-6,2846
-5,2932
-4,3006
-3,3450
-2,4225
-1,6634
0,5890
1,9411
2,8687
3,8249
4,7961
5,7404
6,7895
7,7034
8,7105
9,6916
10,6391
11,6180
12,6490
13,5676
14,5449
15,5634
16,5185
17,5417
18,5793
19,4940
20,4679
21,5172
22,4536
23,4913
24,5439
25,4832
26,4608
27,4944
28,4331
29,4614
30,4980
31,4555
32,4558
33,4793
34,4424
35,4245
36,4813
37,4372
38,4152
39,4644
40,4527
41,4260
42,4557
43,4004
44,3901
45,4263
46,3840
47,3770
48,4339
49,3837
50,3631
51,4136
52,3841
53,3839
54,4203
55,3631
56,3774
57,4051
58,3641
59,3625
60,4054
61,3567
62,3569
63,3805

DRAM Statistics
 CHANNEL 0
 RQ ROW_BUFFER_HIT:      75797  ROW_BUFFER_MISS:     132660
 DBUS_CONGESTED:        162
 WQ ROW_BUFFER_HIT:       4943  ROW_BUFFER_MISS:      21621  FULL:          0

 AVG_CONGESTED_CYCLE: 4
 All warmup complete: 2
Channel 0 Bank busy for read cycles: 0
Channel 0 Bank busy for write cycles: 0
Channel 0
Rank 0
0banks busy for read cycles: 650970963
0banks busy for write cycles: 13913
1banks busy for read cycles: 6214918
1banks busy for write cycles: 2107058
2banks busy for read cycles: 4313521
2banks busy for write cycles: 597483
3banks busy for read cycles: 713490
3banks busy for write cycles: 205999
4banks busy for read cycles: 470911
4banks busy for write cycles: 99658
5banks busy for read cycles: 199385
5banks busy for write cycles: 46224
6banks busy for read cycles: 175488
6banks busy for write cycles: 17736
7banks busy for read cycles: 171958
7banks busy for write cycles: 15318
8banks busy for read cycles: 197743
8banks busy for write cycles: 100563

CPU 0 Branch Prediction Accuracy: 99.8126% MPKI: 0.337515 Average ROB Occupancy at Mispredict: 51.0112
Branch types
NOT_BRANCH: 163976086 81.988%
BRANCH_DIRECT_JUMP: 2028929 1.01446%
BRANCH_INDIRECT: 12036857 6.01843%
BRANCH_CONDITIONAL: 12847814 6.42391%
BRANCH_DIRECT_CALL: 3832241 1.91612%
BRANCH_INDIRECT_CALL: 722842 0.361421%
BRANCH_RETURN: 4555135 2.27757%
BRANCH_OTHER: 0 0%

DRAM PAGES: 1048576
Allocated PAGES: 4510
