
*** ChampSim Multicore Out-of-Order Simulator ***

Warmup Instructions: 50000000
Simulation Instructions: 200000000
Number of CPUs: 1
LLC sets: 2048
LLC ways: 16
Off-chip DRAM Size: 4096 MB Channels: 1 Width: 64-bit Data Rate: 6400 MT/s
CPU 0 runs traces/spec2k17/srv_21.champsimtrace.xz
.xz
BTB has LRU replacement policy
ITLB has LRU replacement policy
DTLB has LRU replacement policy
STLB has LRU replacement policy
L1I has LRU replacement policy
CPU 0 L2C next line prefetcher
L1D has LRU replacement policy
Initialize SRRIP state for L2C
Initialize DRRIP state for LLC
Heartbeat CPU 0 instructions: 10000003 cycles: 2831722 heartbeat IPC: 3.53142 cumulative IPC: 3.53142 (Simulation time: 0 hr 0 min 34 sec) 
Heartbeat CPU 0 instructions: 20000002 cycles: 5660041 heartbeat IPC: 3.53567 cumulative IPC: 3.53354 (Simulation time: 0 hr 1 min 8 sec) 
Heartbeat CPU 0 instructions: 30000001 cycles: 8487035 heartbeat IPC: 3.53733 cumulative IPC: 3.5348 (Simulation time: 0 hr 1 min 42 sec) 
*** Reached end of trace for Core: 0 Repeating trace: traces/spec2k17/srv_21.champsimtrace.xz
Heartbeat CPU 0 instructions: 40000002 cycles: 11314973 heartbeat IPC: 3.53615 cumulative IPC: 3.53514 (Simulation time: 0 hr 2 min 18 sec) 
Heartbeat CPU 0 instructions: 50000001 cycles: 14142741 heartbeat IPC: 3.53636 cumulative IPC: 3.53538 (Simulation time: 0 hr 2 min 53 sec) 

Warmup complete CPU 0 instructions: 50000001 cycles: 14142741 (Simulation time: 0 hr 2 min 53 sec) 

Heartbeat CPU 0 instructions: 60000002 cycles: 46633811 heartbeat IPC: 0.307777 cumulative IPC: 0.307777 (Simulation time: 0 hr 3 min 54 sec) 
*** Reached end of trace for Core: 0 Repeating trace: traces/spec2k17/srv_21.champsimtrace.xz
Heartbeat CPU 0 instructions: 70000002 cycles: 78992435 heartbeat IPC: 0.309037 cumulative IPC: 0.308405 (Simulation time: 0 hr 4 min 55 sec) 
Heartbeat CPU 0 instructions: 80000000 cycles: 111312437 heartbeat IPC: 0.309406 cumulative IPC: 0.308738 (Simulation time: 0 hr 5 min 55 sec) 
Heartbeat CPU 0 instructions: 90000000 cycles: 143660231 heartbeat IPC: 0.30914 cumulative IPC: 0.308839 (Simulation time: 0 hr 6 min 52 sec) 
*** Reached end of trace for Core: 0 Repeating trace: traces/spec2k17/srv_21.champsimtrace.xz
Heartbeat CPU 0 instructions: 100000002 cycles: 176047566 heartbeat IPC: 0.308763 cumulative IPC: 0.308823 (Simulation time: 0 hr 7 min 49 sec) 
Heartbeat CPU 0 instructions: 110000000 cycles: 208230662 heartbeat IPC: 0.310722 cumulative IPC: 0.309138 (Simulation time: 0 hr 8 min 48 sec) 
Heartbeat CPU 0 instructions: 120000001 cycles: 240609213 heartbeat IPC: 0.308846 cumulative IPC: 0.309097 (Simulation time: 0 hr 9 min 46 sec) 
*** Reached end of trace for Core: 0 Repeating trace: traces/spec2k17/srv_21.champsimtrace.xz
Heartbeat CPU 0 instructions: 130000002 cycles: 273021695 heartbeat IPC: 0.308523 cumulative IPC: 0.309025 (Simulation time: 0 hr 10 min 43 sec) 
Heartbeat CPU 0 instructions: 140000000 cycles: 305115229 heartbeat IPC: 0.311589 cumulative IPC: 0.309308 (Simulation time: 0 hr 11 min 43 sec) 
Heartbeat CPU 0 instructions: 150000001 cycles: 337614945 heartbeat IPC: 0.307695 cumulative IPC: 0.309146 (Simulation time: 0 hr 12 min 37 sec) 
*** Reached end of trace for Core: 0 Repeating trace: traces/spec2k17/srv_21.champsimtrace.xz
Heartbeat CPU 0 instructions: 160000000 cycles: 370030873 heartbeat IPC: 0.30849 cumulative IPC: 0.309086 (Simulation time: 0 hr 13 min 33 sec) 
Heartbeat CPU 0 instructions: 170000003 cycles: 402131686 heartbeat IPC: 0.311519 cumulative IPC: 0.309287 (Simulation time: 0 hr 14 min 28 sec) 
Heartbeat CPU 0 instructions: 180000003 cycles: 434618440 heartbeat IPC: 0.307818 cumulative IPC: 0.309174 (Simulation time: 0 hr 15 min 25 sec) 
*** Reached end of trace for Core: 0 Repeating trace: traces/spec2k17/srv_21.champsimtrace.xz
Heartbeat CPU 0 instructions: 190000000 cycles: 466986447 heartbeat IPC: 0.308947 cumulative IPC: 0.309157 (Simulation time: 0 hr 16 min 22 sec) 
Heartbeat CPU 0 instructions: 200000000 cycles: 499047916 heartbeat IPC: 0.311901 cumulative IPC: 0.309339 (Simulation time: 0 hr 17 min 20 sec) 
Heartbeat CPU 0 instructions: 210000000 cycles: 531501070 heartbeat IPC: 0.308136 cumulative IPC: 0.309263 (Simulation time: 0 hr 18 min 20 sec) 
*** Reached end of trace for Core: 0 Repeating trace: traces/spec2k17/srv_21.champsimtrace.xz
Heartbeat CPU 0 instructions: 220000000 cycles: 563798512 heartbeat IPC: 0.309622 cumulative IPC: 0.309284 (Simulation time: 0 hr 19 min 20 sec) 
Heartbeat CPU 0 instructions: 230000001 cycles: 595954541 heartbeat IPC: 0.310984 cumulative IPC: 0.309378 (Simulation time: 0 hr 20 min 15 sec) 
Heartbeat CPU 0 instructions: 240000000 cycles: 628287372 heartbeat IPC: 0.309283 cumulative IPC: 0.309373 (Simulation time: 0 hr 21 min 13 sec) 
*** Reached end of trace for Core: 0 Repeating trace: traces/spec2k17/srv_21.champsimtrace.xz
Heartbeat CPU 0 instructions: 250000002 cycles: 660670254 heartbeat IPC: 0.308805 cumulative IPC: 0.309345 (Simulation time: 0 hr 22 min 8 sec) 
Finished CPU 0 instructions: 200000001 cycles: 646527513 cumulative IPC: 0.309345 (Simulation time: 0 hr 22 min 8 sec) 

ChampSim completed all CPUs

Region of Interest Statistics

CPU 0 cumulative IPC: 0.309345 instructions: 200000001 cycles: 646527513
ITLB TOTAL     ACCESS:   34710433  HIT:   32676335  MISS:    2034098  HIT %:    94.1398  MISS %:    5.86019   MPKI: 10.1705
ITLB LOAD TRANSLATION ACCESS:   34710433  HIT:   32676335  MISS:    2034098  HIT %:    94.1398  MISS %:    5.86019   MPKI: 10.1705
ITLB PREFETCH  REQUESTED:          0  ISSUED:          0  USEFUL:          0  USELESS:          0
ITLB USEFUL LOAD PREFETCHES:          0 PREFETCH ISSUED TO LOWER LEVEL:          0  ACCURACY: -nan
ITLB TIMELY PREFETCHES:          0 LATE PREFETCHES: 0 DROPPED PREFETCHES: 0
ITLB PREFETCHES SAME FILL-ORIGIN LEVEL: 0 DIFFERENT FILL-ORIGIN LEVEL: 0
ITLB AVERAGE MISS LATENCY: 9.03732 cycles
ITLB RQ	ACCESS:   40940119	FORWARD:          0	MERGED:    5745490	TO_CACHE:   35194629

DTLB TOTAL     ACCESS:   46487954  HIT:   44664866  MISS:    1823088  HIT %:    96.0784  MISS %:    3.92164   MPKI: 9.11544
DTLB LOAD TRANSLATION ACCESS:   46487954  HIT:   44664866  MISS:    1823088  HIT %:    96.0784  MISS %:    3.92164   MPKI: 9.11544
DTLB PREFETCH  REQUESTED:          0  ISSUED:          0  USEFUL:          0  USELESS:          0
DTLB USEFUL LOAD PREFETCHES:          0 PREFETCH ISSUED TO LOWER LEVEL:          0  ACCURACY: -nan
DTLB TIMELY PREFETCHES:          0 LATE PREFETCHES: 0 DROPPED PREFETCHES: 0
DTLB PREFETCHES SAME FILL-ORIGIN LEVEL: 0 DIFFERENT FILL-ORIGIN LEVEL: 0
DTLB AVERAGE MISS LATENCY: 9.20078 cycles
DTLB RQ	ACCESS:   61149219	FORWARD:          0	MERGED:   14596785	TO_CACHE:   46552434

STLB TOTAL     ACCESS:    6444529  HIT:    6435619  MISS:       8910  HIT %:    99.8617  MISS %:   0.138257   MPKI: 0.04455
STLB LOAD TRANSLATION ACCESS:    3857186  HIT:    3848326  MISS:       8860  HIT %:    99.7703  MISS %:   0.229701   MPKI: 0.0443
STLB TRANSLATION FROM L1D PREFETCHER ACCESS:    2587343  HIT:    2587293  MISS:         50  HIT %:    99.9981  MISS %: 0.00193248   MPKI: 0.00025
STLB PREFETCH  REQUESTED:          0  ISSUED:          0  USEFUL:         49  USELESS:          2
STLB USEFUL LOAD PREFETCHES:         49 PREFETCH ISSUED TO LOWER LEVEL:          0  ACCURACY: inf
STLB TIMELY PREFETCHES:         49 LATE PREFETCHES: 139 DROPPED PREFETCHES: 7928
STLB PREFETCHES SAME FILL-ORIGIN LEVEL: 0 DIFFERENT FILL-ORIGIN LEVEL: 0
STLB AVERAGE MISS LATENCY: 47.3129 cycles
STLB RQ	ACCESS:    6651219	FORWARD:          0	MERGED:     198400	TO_CACHE:    6452819

STLB Hit, L1D data hit: 0
STLB Hit, L2C data hit: 0
STLB Hit, LLC data hit: 0
STLB Hit, LLC data miss: 0
STLB STLB hints to L2: 0
L1D TOTAL     ACCESS:   61296529  HIT:   55737938  MISS:    5558591  HIT %:    90.9316  MISS %:    9.06836   MPKI: 27.793
L1D LOAD      ACCESS:   34243552  HIT:   31511496  MISS:    2732056  HIT %:    92.0217  MISS %:    7.97831   MPKI: 13.6603
L1D RFO       ACCESS:   25039956  HIT:   23893725  MISS:    1146231  HIT %:    95.4224  MISS %:    4.57761   MPKI: 5.73115
L1D PREFETCH  ACCESS:    2013021  HIT:     332717  MISS:    1680304  HIT %:    16.5282  MISS %:    83.4718   MPKI: 8.40152
AGUS PREFETCH L1 MISS: 0
L1D PREFETCH  REQUESTED:    5643446  ISSUED:    5643446  USEFUL:     368504  USELESS:    1311602
L1D USEFUL LOAD PREFETCHES:     368504 PREFETCH ISSUED TO LOWER LEVEL:    1798533  ACCURACY: 20.4891
L1D TIMELY PREFETCHES:     368504 LATE PREFETCHES: 117089 DROPPED PREFETCHES: 8210
L1D PREFETCHES SAME FILL-ORIGIN LEVEL: 1798533 DIFFERENT FILL-ORIGIN LEVEL: 0
L1D AVERAGE MISS LATENCY: 7.38397e+06 cycles
L1D RQ	ACCESS:   47502514	FORWARD:          0	MERGED:   12837091	TO_CACHE:   34365403
L1D WQ	ACCESS:   26956433	FORWARD:     300260	MERGED:     172617	TO_CACHE:   26783816
L1D PQ	ACCESS:    2849413	FORWARD:          0	MERGED:      55140	TO_CACHE:    2794033

L1D UNIQUE REGIONS ACCESSED: 0
L1D REGIONS CONFLICTS: 0
L1D Cross Page Prefetch Requests: 55532
L1D Same Page Prefetch Requests: 3485965
L1D ROI Sum of L1D PQ occupancy: 36284526
L1D PREFETCHES PUSHED FROM L2C: 0
L1I TOTAL     ACCESS:   39415737  HIT:   28801295  MISS:   10614442  HIT %:    73.0705  MISS %:    26.9295   MPKI: 53.0722
L1I LOAD      ACCESS:   39415737  HIT:   28801295  MISS:   10614442  HIT %:    73.0705  MISS %:    26.9295   MPKI: 53.0722
L1I PREFETCH  REQUESTED:          0  ISSUED:          0  USEFUL:          0  USELESS:          0
L1I USEFUL LOAD PREFETCHES:          0 PREFETCH ISSUED TO LOWER LEVEL:          0  ACCURACY: -nan
L1I TIMELY PREFETCHES:          0 LATE PREFETCHES: 0 DROPPED PREFETCHES: 0
L1I PREFETCHES SAME FILL-ORIGIN LEVEL: 0 DIFFERENT FILL-ORIGIN LEVEL: 0
L1I AVERAGE MISS LATENCY: 17.2117 cycles
L1I RQ	ACCESS:   57968550	FORWARD:          0	MERGED:   17028431	TO_CACHE:   40940119

BTB TOTAL     ACCESS:   30056911  HIT:   17338348  MISS:   12718563  HIT %:    57.6851  MISS %:    42.3149   MPKI: 63.5928
BTB BRANCH_DIRECT_JUMP	ACCESS:    2028089  HIT:    1137072  MISS:     891017
BTB BRANCH_INDIRECT	ACCESS:   11881298  HIT:    7052868  MISS:    4828430
BTB BRANCH_CONDITIONAL	ACCESS:    7600017  HIT:    6262793  MISS:    1337224
BTB BRANCH_DIRECT_CALL	ACCESS:    3604795  HIT:    1510788  MISS:    2094007
BTB BRANCH_INDIRECT_CALL	ACCESS:     668935  HIT:     263186  MISS:     405749
BTB BRANCH_RETURN	ACCESS:    4273777  HIT:    1111641  MISS:    3162136
BTB BRANCH_OTHER ACCESS:          0  HIT:          0  MISS:          0

L2C TOTAL     ACCESS:   18307858  HIT:   16192413  MISS:    2115445  HIT %:    88.4452  MISS %:    11.5548   MPKI: 10.5772
L2C LOAD      ACCESS:   13229329  HIT:   11792350  MISS:    1436979  HIT %:    89.1379  MISS %:    10.8621   MPKI: 7.18489
L2C DATA LOAD MPKI: 1.68082
L2C INSTRUCTION LOAD MPKI: 5.50407
L2C RFO       ACCESS:    1145079  HIT:     916786  MISS:     228293  HIT %:    80.0631  MISS %:    19.9369   MPKI: 1.14146
L2C PREFETCH  ACCESS:    1798533  HIT:    1406640  MISS:     391893  HIT %:    78.2104  MISS %:    21.7896   MPKI: 1.95946
AGUS PREFETCH L1 MISS: 0
L2C DATA PREFETCH MPKI: 1.95946
L2C INSTRUCTION PREFETCH MPKI: 0
L2C WRITEBACK ACCESS:    2111977  HIT:    2062538  MISS:      49439  HIT %:    97.6591  MISS %:    2.34089   MPKI: 0.247195
L2C LOAD TRANSLATION ACCESS:       9417  HIT:       2722  MISS:       6695  HIT %:    28.9052  MISS %:    71.0948   MPKI: 0.033475
L2C TRANSLATION FROM L1D PREFETCHER ACCESS:      13523  HIT:      11377  MISS:       2146  HIT %:    84.1307  MISS %:    15.8693   MPKI: 0.01073
L2C PREFETCH  REQUESTED:          0  ISSUED:          0  USEFUL:      18126  USELESS:     375446
L2C USEFUL LOAD PREFETCHES:      18126 PREFETCH ISSUED TO LOWER LEVEL:     391893  ACCURACY: 4.62524
L2C TIMELY PREFETCHES:      18126 LATE PREFETCHES: 0 DROPPED PREFETCHES: 0
L2C PREFETCHES SAME FILL-ORIGIN LEVEL: 0 DIFFERENT FILL-ORIGIN LEVEL: 0
L2C AVERAGE MISS LATENCY: 31.7324 cycles
L2C RQ	ACCESS:   14397440	FORWARD:          0	MERGED:          0	TO_CACHE:   14397348
L2C WQ	ACCESS:    2111977	FORWARD:         92	MERGED:          0	TO_CACHE:    2111977
L2C PQ	ACCESS:    1798533	FORWARD:          0	MERGED:          0	TO_CACHE:    1798533

L2C Instructions Evicting Data 491935
L2C Translations Evicting Data 5402
L2C Data Evicting Data 486108
L2C Instructions Evicting Instructions 605670
L2C Translations Evicting Instructions 3346
L2C Data Evicting Instructions 464806
L2C Instructions Evicting Translations 3210
L2C Translations Evicting Translations 93
L2C Data Evicting Translations 5436
L2C Dense regions hint from L2: 0
PSCL5 TOTAL     ACCESS:      16838  HIT:      16838  MISS:          0  HIT %:        100  MISS %:          0   MPKI: 0
PSCL5 LOAD TRANSLATION ACCESS:       8721  HIT:       8721  MISS:          0  HIT %:        100  MISS %:          0   MPKI: 0
PSCL5 TRANSLATION FROM L1D PREFETCHER ACCESS:       8117  HIT:       8117  MISS:          0  HIT %:        100  MISS %:          0   MPKI: 0
PSCL5 PREFETCH  REQUESTED:          0  ISSUED:          0  USEFUL:          0  USELESS:          0
PSCL5 USEFUL LOAD PREFETCHES:          0 PREFETCH ISSUED TO LOWER LEVEL:          0  ACCURACY: -nan
PSCL5 TIMELY PREFETCHES:          0 LATE PREFETCHES: 0 DROPPED PREFETCHES: 0
PSCL5 PREFETCHES SAME FILL-ORIGIN LEVEL: 0 DIFFERENT FILL-ORIGIN LEVEL: 0

PSCL4 TOTAL     ACCESS:      15261  HIT:      15188  MISS:         73  HIT %:    99.5217  MISS %:   0.478343   MPKI: 0.000365
PSCL4 LOAD TRANSLATION ACCESS:       8150  HIT:       8077  MISS:         73  HIT %:    99.1043  MISS %:   0.895706   MPKI: 0.000365
PSCL4 TRANSLATION FROM L1D PREFETCHER ACCESS:       7111  HIT:       7111  MISS:          0  HIT %:        100  MISS %:          0   MPKI: 0
PSCL4 PREFETCH  REQUESTED:          0  ISSUED:          0  USEFUL:          0  USELESS:          0
PSCL4 USEFUL LOAD PREFETCHES:          0 PREFETCH ISSUED TO LOWER LEVEL:          0  ACCURACY: -nan
PSCL4 TIMELY PREFETCHES:          0 LATE PREFETCHES: 0 DROPPED PREFETCHES: 0
PSCL4 PREFETCHES SAME FILL-ORIGIN LEVEL: 0 DIFFERENT FILL-ORIGIN LEVEL: 0

PSCL3 TOTAL     ACCESS:      16002  HIT:      15929  MISS:         73  HIT %:    99.5438  MISS %:   0.456193   MPKI: 0.000365
PSCL3 LOAD TRANSLATION ACCESS:       8241  HIT:       8168  MISS:         73  HIT %:    99.1142  MISS %:   0.885815   MPKI: 0.000365
PSCL3 TRANSLATION FROM L1D PREFETCHER ACCESS:       7761  HIT:       7761  MISS:          0  HIT %:        100  MISS %:          0   MPKI: 0
PSCL3 PREFETCH  REQUESTED:          0  ISSUED:          0  USEFUL:          0  USELESS:          0
PSCL3 USEFUL LOAD PREFETCHES:          0 PREFETCH ISSUED TO LOWER LEVEL:          0  ACCURACY: -nan
PSCL3 TIMELY PREFETCHES:          0 LATE PREFETCHES: 0 DROPPED PREFETCHES: 0
PSCL3 PREFETCHES SAME FILL-ORIGIN LEVEL: 0 DIFFERENT FILL-ORIGIN LEVEL: 0

PSCL2 TOTAL     ACCESS:      11878  HIT:      11320  MISS:        558  HIT %:    95.3022  MISS %:    4.69776   MPKI: 0.00279
PSCL2 LOAD TRANSLATION ACCESS:       8729  HIT:       8171  MISS:        558  HIT %:    93.6075  MISS %:    6.39248   MPKI: 0.00279
PSCL2 TRANSLATION FROM L1D PREFETCHER ACCESS:       3149  HIT:       3149  MISS:          0  HIT %:        100  MISS %:          0   MPKI: 0
PSCL2 PREFETCH  REQUESTED:          0  ISSUED:          0  USEFUL:          0  USELESS:          0
PSCL2 USEFUL LOAD PREFETCHES:          0 PREFETCH ISSUED TO LOWER LEVEL:          0  ACCURACY: -nan
PSCL2 TIMELY PREFETCHES:          0 LATE PREFETCHES: 0 DROPPED PREFETCHES: 0
PSCL2 PREFETCHES SAME FILL-ORIGIN LEVEL: 0 DIFFERENT FILL-ORIGIN LEVEL: 0

LLC TOTAL     ACCESS:    2395316  HIT:    2359661  MISS:      35655  HIT %:    98.5115  MISS %:    1.48853   MPKI: 0.178275
LLC LOAD      ACCESS:    1436978  HIT:    1427434  MISS:       9544  HIT %:    99.3358  MISS %:   0.664172   MPKI: 0.04772
LLC RFO       ACCESS:     228281  HIT:     214220  MISS:      14061  HIT %:    93.8405  MISS %:    6.15951   MPKI: 0.070305
LLC PREFETCH  ACCESS:     391892  HIT:     380394  MISS:      11498  HIT %:     97.066  MISS %:    2.93397   MPKI: 0.05749
AGUS PREFETCH L1 MISS: 0
LLC WRITEBACK ACCESS:     329324  HIT:     329018  MISS:        306  HIT %:    99.9071  MISS %:  0.0929176   MPKI: 0.00153
LLC LOAD TRANSLATION ACCESS:       6695  HIT:       6471  MISS:        224  HIT %:    96.6542  MISS %:    3.34578   MPKI: 0.00112
LLC TRANSLATION FROM L1D PREFETCHER ACCESS:       2146  HIT:       2124  MISS:         22  HIT %:    98.9748  MISS %:    1.02516   MPKI: 0.00011
LLC PREFETCH  REQUESTED:          0  ISSUED:          0  USEFUL:       2245  USELESS:       9533
LLC USEFUL LOAD PREFETCHES:       2245 PREFETCH ISSUED TO LOWER LEVEL:      11498  ACCURACY: 19.5251
LLC TIMELY PREFETCHES:       2245 LATE PREFETCHES: 0 DROPPED PREFETCHES: 0
LLC PREFETCHES SAME FILL-ORIGIN LEVEL: 0 DIFFERENT FILL-ORIGIN LEVEL: 0
LLC AVERAGE MISS LATENCY: 144.372 cycles
LLC RQ	ACCESS:    1674113	FORWARD:          0	MERGED:          0	TO_CACHE:    1674100
LLC WQ	ACCESS:     329324	FORWARD:         14	MERGED:          0	TO_CACHE:     329324
LLC PQ	ACCESS:     391893	FORWARD:          0	MERGED:          0	TO_CACHE:     391892

LLC Dense regions hint to LLC: 0

RAW hits: 1426636
Loads Generated: 48929150
Loads sent to L1D: 47502514
Stores Generated: 26956434
Stores sent to L1D: 26956433
Major fault: 0 Minor fault: 2008
Allocated PAGES: 2008
CPU 0 L1d next line prefetcher final stats

-63,237
-62,303
-61,268
-60,257
-59,245
-58,238
-57,307
-56,284
-55,227
-54,200
-53,285
-52,218
-51,217
-50,295
-49,174
-48,302
-47,200
-46,266
-45,265
-44,285
-43,279
-42,361
-41,336
-40,411
-39,315
-38,263
-37,293
-36,372
-35,356
-34,324
-33,424
-32,468
-31,352
-30,364
-29,314
-28,360
-27,423
-26,403
-25,470
-24,438
-23,494
-22,489
-21,591
-20,533
-19,577
-18,663
-17,722
-16,796
-15,822
-14,1162
-13,1109
-12,1121
-11,1134
-10,1277
-9,1373
-8,1688
-7,1593
-6,1892
-5,1903
-4,2193
-3,2627
-2,3390
-1,4667
0,5489
1,5847
2,5371
3,4729
4,4425
5,3953
6,3937
7,3505
8,3570
9,3229
10,2968
11,2782
12,2483
13,2293
14,2152
15,1910
16,1862
17,1933
18,1710
19,1499
20,1374
21,1383
22,1200
23,1377
24,1342
25,1308
26,1148
27,1109
28,1032
29,897
30,967
31,1074
32,1067
33,940
34,850
35,891
36,966
37,965
38,828
39,826
40,961
41,810
42,756
43,691
44,634
45,596
46,558
47,506
48,540
49,459
50,447
51,490
52,473
53,440
54,503
55,452
56,520
57,498
58,479
59,450
60,528
61,438
62,496
63,442

DRAM Statistics
 CHANNEL 0
 RQ ROW_BUFFER_HIT:       9918  ROW_BUFFER_MISS:      25419
 DBUS_CONGESTED:         58
 WQ ROW_BUFFER_HIT:       1912  ROW_BUFFER_MISS:      14203  FULL:          0

 AVG_CONGESTED_CYCLE: 5
 All warmup complete: 2
Channel 0 Bank busy for read cycles: 0
Channel 0 Bank busy for write cycles: 0
Channel 0
Rank 0
0banks busy for read cycles: 642696334
0banks busy for write cycles: 6554
1banks busy for read cycles: 1634063
1banks busy for write cycles: 803804
2banks busy for read cycles: 472851
2banks busy for write cycles: 207751
3banks busy for read cycles: 173753
3banks busy for write cycles: 78111
4banks busy for read cycles: 103018
4banks busy for write cycles: 51598
5banks busy for read cycles: 62736
5banks busy for write cycles: 37452
6banks busy for read cycles: 38737
6banks busy for write cycles: 37115
7banks busy for read cycles: 23696
7banks busy for write cycles: 40067
8banks busy for read cycles: 10574
8banks busy for write cycles: 49300

CPU 0 Branch Prediction Accuracy: 99.8824% MPKI: 0.20672 Average ROB Occupancy at Mispredict: 32.1799
Branch types
NOT_BRANCH: 164846691 82.4233%
BRANCH_DIRECT_JUMP: 2028089 1.01404%
BRANCH_INDIRECT: 11881298 5.94065%
BRANCH_CONDITIONAL: 12696369 6.34818%
BRANCH_DIRECT_CALL: 3604795 1.8024%
BRANCH_INDIRECT_CALL: 668935 0.334467%
BRANCH_RETURN: 4273777 2.13689%
BRANCH_OTHER: 0 0%

DRAM PAGES: 1048576
Allocated PAGES: 2008
