
*** ChampSim Multicore Out-of-Order Simulator ***

Warmup Instructions: 50000000
Simulation Instructions: 200000000
Number of CPUs: 1
LLC sets: 2048
LLC ways: 16
Off-chip DRAM Size: 4096 MB Channels: 1 Width: 64-bit Data Rate: 6400 MT/s
CPU 0 runs traces/spec2k17/srv_6.champsimtrace.xz
.xz
BTB has LRU replacement policy
ITLB has LRU replacement policy
DTLB has LRU replacement policy
STLB has LRU replacement policy
L1I has LRU replacement policy
CPU 0 L2C next line prefetcher
L1D has LRU replacement policy
Initialize SRRIP state for L2C
Initialize DRRIP state for LLC
Heartbeat CPU 0 instructions: 10000003 cycles: 2776002 heartbeat IPC: 3.6023 cumulative IPC: 3.6023 (Simulation time: 0 hr 0 min 34 sec) 
Heartbeat CPU 0 instructions: 20000002 cycles: 5548217 heartbeat IPC: 3.60722 cumulative IPC: 3.60476 (Simulation time: 0 hr 1 min 8 sec) 
Heartbeat CPU 0 instructions: 30000001 cycles: 8319610 heartbeat IPC: 3.60829 cumulative IPC: 3.60594 (Simulation time: 0 hr 1 min 41 sec) 
*** Reached end of trace for Core: 0 Repeating trace: traces/spec2k17/srv_6.champsimtrace.xz
Heartbeat CPU 0 instructions: 40000002 cycles: 11087716 heartbeat IPC: 3.61258 cumulative IPC: 3.6076 (Simulation time: 0 hr 2 min 15 sec) 
Heartbeat CPU 0 instructions: 50000003 cycles: 13860452 heartbeat IPC: 3.60655 cumulative IPC: 3.60739 (Simulation time: 0 hr 2 min 48 sec) 

Warmup complete CPU 0 instructions: 50000003 cycles: 13860452 (Simulation time: 0 hr 2 min 48 sec) 

Heartbeat CPU 0 instructions: 60000001 cycles: 35683684 heartbeat IPC: 0.458227 cumulative IPC: 0.458227 (Simulation time: 0 hr 3 min 45 sec) 
*** Reached end of trace for Core: 0 Repeating trace: traces/spec2k17/srv_6.champsimtrace.xz
Heartbeat CPU 0 instructions: 70000000 cycles: 57428745 heartbeat IPC: 0.459875 cumulative IPC: 0.459049 (Simulation time: 0 hr 4 min 40 sec) 
Heartbeat CPU 0 instructions: 80000001 cycles: 79445040 heartbeat IPC: 0.454209 cumulative IPC: 0.457425 (Simulation time: 0 hr 5 min 34 sec) 
Heartbeat CPU 0 instructions: 90000000 cycles: 100872152 heartbeat IPC: 0.466698 cumulative IPC: 0.459708 (Simulation time: 0 hr 6 min 27 sec) 
*** Reached end of trace for Core: 0 Repeating trace: traces/spec2k17/srv_6.champsimtrace.xz
Heartbeat CPU 0 instructions: 100000003 cycles: 123061562 heartbeat IPC: 0.450666 cumulative IPC: 0.457871 (Simulation time: 0 hr 7 min 21 sec) 
Heartbeat CPU 0 instructions: 110000000 cycles: 144922120 heartbeat IPC: 0.457445 cumulative IPC: 0.4578 (Simulation time: 0 hr 8 min 13 sec) 
Heartbeat CPU 0 instructions: 120000002 cycles: 166646632 heartbeat IPC: 0.46031 cumulative IPC: 0.458157 (Simulation time: 0 hr 9 min 6 sec) 
*** Reached end of trace for Core: 0 Repeating trace: traces/spec2k17/srv_6.champsimtrace.xz
Heartbeat CPU 0 instructions: 130000001 cycles: 188643261 heartbeat IPC: 0.454615 cumulative IPC: 0.457711 (Simulation time: 0 hr 10 min 2 sec) 
Heartbeat CPU 0 instructions: 140000003 cycles: 210577338 heartbeat IPC: 0.455912 cumulative IPC: 0.45751 (Simulation time: 0 hr 10 min 55 sec) 
Heartbeat CPU 0 instructions: 150000000 cycles: 232228761 heartbeat IPC: 0.461863 cumulative IPC: 0.457942 (Simulation time: 0 hr 11 min 47 sec) 
*** Reached end of trace for Core: 0 Repeating trace: traces/spec2k17/srv_6.champsimtrace.xz
Heartbeat CPU 0 instructions: 160000000 cycles: 254183082 heartbeat IPC: 0.455491 cumulative IPC: 0.457718 (Simulation time: 0 hr 12 min 40 sec) 
Heartbeat CPU 0 instructions: 170000000 cycles: 275740135 heartbeat IPC: 0.463885 cumulative IPC: 0.458226 (Simulation time: 0 hr 13 min 32 sec) 
Heartbeat CPU 0 instructions: 180000000 cycles: 297805779 heartbeat IPC: 0.453193 cumulative IPC: 0.457835 (Simulation time: 0 hr 14 min 23 sec) 
*** Reached end of trace for Core: 0 Repeating trace: traces/spec2k17/srv_6.champsimtrace.xz
Heartbeat CPU 0 instructions: 190000002 cycles: 319672762 heartbeat IPC: 0.457311 cumulative IPC: 0.457797 (Simulation time: 0 hr 15 min 16 sec) 
Heartbeat CPU 0 instructions: 200000000 cycles: 341257977 heartbeat IPC: 0.46328 cumulative IPC: 0.458159 (Simulation time: 0 hr 16 min 11 sec) 
Heartbeat CPU 0 instructions: 210000000 cycles: 363131748 heartbeat IPC: 0.457169 cumulative IPC: 0.458097 (Simulation time: 0 hr 17 min 6 sec) 
*** Reached end of trace for Core: 0 Repeating trace: traces/spec2k17/srv_6.champsimtrace.xz
Heartbeat CPU 0 instructions: 220000000 cycles: 385187495 heartbeat IPC: 0.453397 cumulative IPC: 0.457817 (Simulation time: 0 hr 17 min 59 sec) 
Heartbeat CPU 0 instructions: 230000002 cycles: 406727867 heartbeat IPC: 0.464245 cumulative IPC: 0.45817 (Simulation time: 0 hr 18 min 56 sec) 
Heartbeat CPU 0 instructions: 240000000 cycles: 428798075 heartbeat IPC: 0.453099 cumulative IPC: 0.4579 (Simulation time: 0 hr 19 min 52 sec) 
*** Reached end of trace for Core: 0 Repeating trace: traces/spec2k17/srv_6.champsimtrace.xz
Heartbeat CPU 0 instructions: 250000000 cycles: 450590158 heartbeat IPC: 0.458882 cumulative IPC: 0.457949 (Simulation time: 0 hr 20 min 47 sec) 
Finished CPU 0 instructions: 200000001 cycles: 436729765 cumulative IPC: 0.457949 (Simulation time: 0 hr 20 min 47 sec) 

ChampSim completed all CPUs

Region of Interest Statistics

CPU 0 cumulative IPC: 0.457949 instructions: 200000001 cycles: 436729765
ITLB TOTAL     ACCESS:   31253403  HIT:   30463596  MISS:     789807  HIT %:    97.4729  MISS %:    2.52711   MPKI: 3.94903
ITLB LOAD TRANSLATION ACCESS:   31253403  HIT:   30463596  MISS:     789807  HIT %:    97.4729  MISS %:    2.52711   MPKI: 3.94903
ITLB PREFETCH  REQUESTED:          0  ISSUED:          0  USEFUL:          0  USELESS:          0
ITLB USEFUL LOAD PREFETCHES:          0 PREFETCH ISSUED TO LOWER LEVEL:          0  ACCURACY: -nan
ITLB TIMELY PREFETCHES:          0 LATE PREFETCHES: 0 DROPPED PREFETCHES: 0
ITLB PREFETCHES SAME FILL-ORIGIN LEVEL: 0 DIFFERENT FILL-ORIGIN LEVEL: 0
ITLB AVERAGE MISS LATENCY: 14.2449 cycles
ITLB RQ	ACCESS:   38236756	FORWARD:          0	MERGED:    6790897	TO_CACHE:   31445859

DTLB TOTAL     ACCESS:   37080806  HIT:   34505701  MISS:    2575105  HIT %:    93.0554  MISS %:    6.94458   MPKI: 12.8755
DTLB LOAD TRANSLATION ACCESS:   37080806  HIT:   34505701  MISS:    2575105  HIT %:    93.0554  MISS %:    6.94458   MPKI: 12.8755
DTLB PREFETCH  REQUESTED:          0  ISSUED:          0  USEFUL:          0  USELESS:          0
DTLB USEFUL LOAD PREFETCHES:          0 PREFETCH ISSUED TO LOWER LEVEL:          0  ACCURACY: -nan
DTLB TIMELY PREFETCHES:          0 LATE PREFETCHES: 0 DROPPED PREFETCHES: 0
DTLB PREFETCHES SAME FILL-ORIGIN LEVEL: 0 DIFFERENT FILL-ORIGIN LEVEL: 0
DTLB AVERAGE MISS LATENCY: 13.9081 cycles
DTLB RQ	ACCESS:   47551650	FORWARD:          0	MERGED:   10320812	TO_CACHE:   37230838

STLB TOTAL     ACCESS:    5207097  HIT:    4861242  MISS:     345855  HIT %:     93.358  MISS %:    6.64199   MPKI: 1.72927
STLB LOAD TRANSLATION ACCESS:    3364912  HIT:    3023923  MISS:     340989  HIT %:    89.8663  MISS %:    10.1337   MPKI: 1.70494
STLB TRANSLATION FROM L1D PREFETCHER ACCESS:    1842185  HIT:    1837319  MISS:       4866  HIT %:    99.7359  MISS %:   0.264143   MPKI: 0.02433
STLB PREFETCH  REQUESTED:          0  ISSUED:          0  USEFUL:       4375  USELESS:        492
STLB USEFUL LOAD PREFETCHES:       4375 PREFETCH ISSUED TO LOWER LEVEL:          0  ACCURACY: inf
STLB TIMELY PREFETCHES:       4375 LATE PREFETCHES: 101 DROPPED PREFETCHES: 14353
STLB PREFETCHES SAME FILL-ORIGIN LEVEL: 0 DIFFERENT FILL-ORIGIN LEVEL: 0
STLB AVERAGE MISS LATENCY: 48.8861 cycles
STLB RQ	ACCESS:    5411326	FORWARD:          0	MERGED:     188952	TO_CACHE:    5222374

STLB Hit, L1D data hit: 0
STLB Hit, L2C data hit: 0
STLB Hit, LLC data hit: 0
STLB Hit, LLC data miss: 0
STLB STLB hints to L2: 0
L1D TOTAL     ACCESS:   48807865  HIT:   44963865  MISS:    3844000  HIT %:    92.1242  MISS %:    7.87578   MPKI: 19.22
L1D LOAD      ACCESS:   27464016  HIT:   25494913  MISS:    1969103  HIT %:    92.8302  MISS %:    7.16976   MPKI: 9.84551
L1D RFO       ACCESS:   19579209  HIT:   19252950  MISS:     326259  HIT %:    98.3336  MISS %:    1.66635   MPKI: 1.63129
L1D PREFETCH  ACCESS:    1764640  HIT:     216002  MISS:    1548638  HIT %:    12.2406  MISS %:    87.7594   MPKI: 7.74319
AGUS PREFETCH L1 MISS: 0
L1D PREFETCH  REQUESTED:    4124276  ISSUED:    4124276  USEFUL:     360373  USELESS:    1188254
L1D USEFUL LOAD PREFETCHES:     360373 PREFETCH ISSUED TO LOWER LEVEL:    1570795  ACCURACY: 22.9421
L1D TIMELY PREFETCHES:     360373 LATE PREFETCHES: 21120 DROPPED PREFETCHES: 16057
L1D PREFETCHES SAME FILL-ORIGIN LEVEL: 1570795 DIFFERENT FILL-ORIGIN LEVEL: 0
L1D AVERAGE MISS LATENCY: 1.33694e+06 cycles
L1D RQ	ACCESS:   42142640	FORWARD:          0	MERGED:   14301216	TO_CACHE:   27576086
L1D WQ	ACCESS:   20260083	FORWARD:     265893	MERGED:     284519	TO_CACHE:   19975564
L1D PQ	ACCESS:    2077862	FORWARD:          0	MERGED:      30893	TO_CACHE:    2046414

L1D UNIQUE REGIONS ACCESSED: 0
L1D REGIONS CONFLICTS: 0
L1D Cross Page Prefetch Requests: 70759
L1D Same Page Prefetch Requests: 2525205
L1D ROI Sum of L1D PQ occupancy: 27507804
L1D PREFETCHES PUSHED FROM L2C: 0
L1I TOTAL     ACCESS:   36467099  HIT:   31451842  MISS:    5015257  HIT %:    86.2472  MISS %:    13.7528   MPKI: 25.0763
L1I LOAD      ACCESS:   36467099  HIT:   31451842  MISS:    5015257  HIT %:    86.2472  MISS %:    13.7528   MPKI: 25.0763
L1I PREFETCH  REQUESTED:          0  ISSUED:          0  USEFUL:          0  USELESS:          0
L1I USEFUL LOAD PREFETCHES:          0 PREFETCH ISSUED TO LOWER LEVEL:          0  ACCURACY: -nan
L1I TIMELY PREFETCHES:          0 LATE PREFETCHES: 0 DROPPED PREFETCHES: 0
L1I PREFETCHES SAME FILL-ORIGIN LEVEL: 0 DIFFERENT FILL-ORIGIN LEVEL: 0
L1I AVERAGE MISS LATENCY: 26.9582 cycles
L1I RQ	ACCESS:   57078943	FORWARD:          0	MERGED:   18842187	TO_CACHE:   38236756

BTB TOTAL     ACCESS:   21970792  HIT:   17815516  MISS:    4155276  HIT %:    81.0873  MISS %:    18.9127   MPKI: 20.7764
BTB BRANCH_DIRECT_JUMP	ACCESS:    1710627  HIT:    1467386  MISS:     243241
BTB BRANCH_INDIRECT	ACCESS:    9437221  HIT:    7430900  MISS:    2006321
BTB BRANCH_CONDITIONAL	ACCESS:    4508286  HIT:    4128634  MISS:     379652
BTB BRANCH_DIRECT_CALL	ACCESS:    2475371  HIT:    2029087  MISS:     446284
BTB BRANCH_INDIRECT_CALL	ACCESS:     681721  HIT:     642211  MISS:      39510
BTB BRANCH_RETURN	ACCESS:    3157566  HIT:    2117298  MISS:    1040268
BTB BRANCH_OTHER ACCESS:          0  HIT:          0  MISS:          0

L2C TOTAL     ACCESS:   10413807  HIT:    6377953  MISS:    4035854  HIT %:    61.2452  MISS %:    38.7548   MPKI: 20.1793
L2C LOAD      ACCESS:    6963090  HIT:    4123866  MISS:    2839224  HIT %:    59.2247  MISS %:    40.7753   MPKI: 14.1961
L2C DATA LOAD MPKI: 4.08912
L2C INSTRUCTION LOAD MPKI: 10.107
L2C RFO       ACCESS:     325211  HIT:     184538  MISS:     140673  HIT %:    56.7441  MISS %:    43.2559   MPKI: 0.703365
L2C PREFETCH  ACCESS:    1570792  HIT:     761628  MISS:     809164  HIT %:    48.4869  MISS %:    51.5131   MPKI: 4.04582
AGUS PREFETCH L1 MISS: 0
L2C DATA PREFETCH MPKI: 4.04582
L2C INSTRUCTION PREFETCH MPKI: 0
L2C WRITEBACK ACCESS:    1071129  HIT:    1027111  MISS:      44018  HIT %:    95.8905  MISS %:     4.1095   MPKI: 0.22009
L2C LOAD TRANSLATION ACCESS:     455992  HIT:     259714  MISS:     196278  HIT %:    56.9558  MISS %:    43.0442   MPKI: 0.98139
L2C TRANSLATION FROM L1D PREFETCHER ACCESS:      27593  HIT:      21096  MISS:       6497  HIT %:    76.4542  MISS %:    23.5458   MPKI: 0.032485
L2C PREFETCH  REQUESTED:          0  ISSUED:          0  USEFUL:      44581  USELESS:     771075
L2C USEFUL LOAD PREFETCHES:      44581 PREFETCH ISSUED TO LOWER LEVEL:     809165  ACCURACY: 5.50951
L2C TIMELY PREFETCHES:      44581 LATE PREFETCHES: 0 DROPPED PREFETCHES: 0
L2C PREFETCHES SAME FILL-ORIGIN LEVEL: 0 DIFFERENT FILL-ORIGIN LEVEL: 0
L2C AVERAGE MISS LATENCY: 43.3888 cycles
L2C RQ	ACCESS:    7772047	FORWARD:          0	MERGED:          0	TO_CACHE:    7771886
L2C WQ	ACCESS:    1071129	FORWARD:        163	MERGED:          0	TO_CACHE:    1071129
L2C PQ	ACCESS:    1570795	FORWARD:          0	MERGED:          0	TO_CACHE:    1570793

L2C Instructions Evicting Data 906315
L2C Translations Evicting Data 90756
L2C Data Evicting Data 795292
L2C Instructions Evicting Instructions 1012879
L2C Translations Evicting Instructions 102944
L2C Data Evicting Instructions 882822
L2C Instructions Evicting Translations 102205
L2C Translations Evicting Translations 9075
L2C Data Evicting Translations 89548
L2C Dense regions hint from L2: 0
PSCL5 TOTAL     ACCESS:     360208  HIT:     360208  MISS:          0  HIT %:        100  MISS %:          0   MPKI: 0
PSCL5 LOAD TRANSLATION ACCESS:     340888  HIT:     340888  MISS:          0  HIT %:        100  MISS %:          0   MPKI: 0
PSCL5 TRANSLATION FROM L1D PREFETCHER ACCESS:      19320  HIT:      19320  MISS:          0  HIT %:        100  MISS %:          0   MPKI: 0
PSCL5 PREFETCH  REQUESTED:          0  ISSUED:          0  USEFUL:          0  USELESS:          0
PSCL5 USEFUL LOAD PREFETCHES:          0 PREFETCH ISSUED TO LOWER LEVEL:          0  ACCURACY: -nan
PSCL5 TIMELY PREFETCHES:          0 LATE PREFETCHES: 0 DROPPED PREFETCHES: 0
PSCL5 PREFETCHES SAME FILL-ORIGIN LEVEL: 0 DIFFERENT FILL-ORIGIN LEVEL: 0

PSCL4 TOTAL     ACCESS:     350315  HIT:     349075  MISS:       1240  HIT %:     99.646  MISS %:   0.353967   MPKI: 0.0062
PSCL4 LOAD TRANSLATION ACCESS:     332184  HIT:     330944  MISS:       1240  HIT %:    99.6267  MISS %:   0.373287   MPKI: 0.0062
PSCL4 TRANSLATION FROM L1D PREFETCHER ACCESS:      18131  HIT:      18131  MISS:          0  HIT %:        100  MISS %:          0   MPKI: 0
PSCL4 PREFETCH  REQUESTED:          0  ISSUED:          0  USEFUL:          0  USELESS:          0
PSCL4 USEFUL LOAD PREFETCHES:          0 PREFETCH ISSUED TO LOWER LEVEL:          0  ACCURACY: -nan
PSCL4 TIMELY PREFETCHES:          0 LATE PREFETCHES: 0 DROPPED PREFETCHES: 0
PSCL4 PREFETCHES SAME FILL-ORIGIN LEVEL: 0 DIFFERENT FILL-ORIGIN LEVEL: 0

PSCL3 TOTAL     ACCESS:     358494  HIT:     357254  MISS:       1240  HIT %:    99.6541  MISS %:   0.345891   MPKI: 0.0062
PSCL3 LOAD TRANSLATION ACCESS:     339286  HIT:     338046  MISS:       1240  HIT %:    99.6345  MISS %:   0.365473   MPKI: 0.0062
PSCL3 TRANSLATION FROM L1D PREFETCHER ACCESS:      19208  HIT:      19208  MISS:          0  HIT %:        100  MISS %:          0   MPKI: 0
PSCL3 PREFETCH  REQUESTED:          0  ISSUED:          0  USEFUL:          0  USELESS:          0
PSCL3 USEFUL LOAD PREFETCHES:          0 PREFETCH ISSUED TO LOWER LEVEL:          0  ACCURACY: -nan
PSCL3 TIMELY PREFETCHES:          0 LATE PREFETCHES: 0 DROPPED PREFETCHES: 0
PSCL3 PREFETCHES SAME FILL-ORIGIN LEVEL: 0 DIFFERENT FILL-ORIGIN LEVEL: 0

PSCL2 TOTAL     ACCESS:     353397  HIT:     239366  MISS:     114031  HIT %:    67.7329  MISS %:    32.2671   MPKI: 0.570155
PSCL2 LOAD TRANSLATION ACCESS:     342201  HIT:     228170  MISS:     114031  HIT %:    66.6772  MISS %:    33.3228   MPKI: 0.570155
PSCL2 TRANSLATION FROM L1D PREFETCHER ACCESS:      11196  HIT:      11196  MISS:          0  HIT %:        100  MISS %:          0   MPKI: 0
PSCL2 PREFETCH  REQUESTED:          0  ISSUED:          0  USEFUL:          0  USELESS:          0
PSCL2 USEFUL LOAD PREFETCHES:          0 PREFETCH ISSUED TO LOWER LEVEL:          0  ACCURACY: -nan
PSCL2 TIMELY PREFETCHES:          0 LATE PREFETCHES: 0 DROPPED PREFETCHES: 0
PSCL2 PREFETCHES SAME FILL-ORIGIN LEVEL: 0 DIFFERENT FILL-ORIGIN LEVEL: 0

LLC TOTAL     ACCESS:    4450489  HIT:    4074681  MISS:     375808  HIT %:    91.5558  MISS %:     8.4442   MPKI: 1.87904
LLC LOAD      ACCESS:    2839223  HIT:    2670869  MISS:     168354  HIT %:    94.0704  MISS %:    5.92958   MPKI: 0.84177
LLC RFO       ACCESS:     140673  HIT:      98229  MISS:      42444  HIT %:    69.8279  MISS %:    30.1721   MPKI: 0.21222
LLC PREFETCH  ACCESS:     809165  HIT:     661064  MISS:     148101  HIT %:    81.6971  MISS %:    18.3029   MPKI: 0.740505
AGUS PREFETCH L1 MISS: 0
LLC WRITEBACK ACCESS:     458653  HIT:     456461  MISS:       2192  HIT %:    99.5221  MISS %:   0.477921   MPKI: 0.01096
LLC LOAD TRANSLATION ACCESS:     196278  HIT:     181896  MISS:      14382  HIT %:    92.6726  MISS %:    7.32736   MPKI: 0.07191
LLC TRANSLATION FROM L1D PREFETCHER ACCESS:       6497  HIT:       6162  MISS:        335  HIT %:    94.8438  MISS %:    5.15623   MPKI: 0.001675
LLC PREFETCH  REQUESTED:          0  ISSUED:          0  USEFUL:       6724  USELESS:     141267
LLC USEFUL LOAD PREFETCHES:       6724 PREFETCH ISSUED TO LOWER LEVEL:     148101  ACCURACY: 4.54014
LLC TIMELY PREFETCHES:       6724 LATE PREFETCHES: 0 DROPPED PREFETCHES: 0
LLC PREFETCHES SAME FILL-ORIGIN LEVEL: 0 DIFFERENT FILL-ORIGIN LEVEL: 0
LLC AVERAGE MISS LATENCY: 147.293 cycles
LLC RQ	ACCESS:    3182672	FORWARD:          0	MERGED:          0	TO_CACHE:    3182671
LLC WQ	ACCESS:     458653	FORWARD:          1	MERGED:          0	TO_CACHE:     458653
LLC PQ	ACCESS:     809165	FORWARD:          0	MERGED:          0	TO_CACHE:     809165

LLC Dense regions hint to LLC: 0

RAW hits: 2726123
Loads Generated: 44868764
Loads sent to L1D: 42142640
Stores Generated: 20260079
Stores sent to L1D: 20260083
Major fault: 0 Minor fault: 6173
Allocated PAGES: 6173
CPU 0 L1d next line prefetcher final stats

-63,197
-62,148
-61,187
-60,202
-59,167
-58,87
-57,84
-56,97
-55,82
-54,89
-53,111
-52,137
-51,155
-50,170
-49,174
-48,118
-47,105
-46,129
-45,171
-44,128
-43,142
-42,192
-41,163
-40,204
-39,197
-38,182
-37,177
-36,203
-35,219
-34,253
-33,281
-32,215
-31,277
-30,286
-29,234
-28,287
-27,236
-26,261
-25,279
-24,327
-23,338
-22,304
-21,535
-20,422
-19,365
-18,419
-17,418
-16,382
-15,485
-14,542
-13,526
-12,596
-11,665
-10,730
-9,678
-8,607
-7,633
-6,748
-5,907
-4,919
-3,1159
-2,1583
-1,2452
0,2839
1,3193
2,2699
3,2471
4,2805
5,1958
6,1905
7,1760
8,2075
9,1574
10,1572
11,1393
12,1399
13,1255
14,1070
15,1149
16,1174
17,953
18,890
19,967
20,1092
21,758
22,718
23,856
24,833
25,841
26,667
27,710
28,830
29,773
30,723
31,829
32,726
33,789
34,657
35,616
36,708
37,548
38,497
39,607
40,693
41,517
42,526
43,560
44,501
45,467
46,444
47,418
48,418
49,453
50,369
51,398
52,393
53,361
54,310
55,387
56,402
57,322
58,332
59,362
60,363
61,337
62,289
63,388

DRAM Statistics
 CHANNEL 0
 RQ ROW_BUFFER_HIT:      89548  ROW_BUFFER_MISS:     284068
 DBUS_CONGESTED:        188
 WQ ROW_BUFFER_HIT:      34607  ROW_BUFFER_MISS:     187484  FULL:          0

 AVG_CONGESTED_CYCLE: 4
 All warmup complete: 2
Channel 0 Bank busy for read cycles: 0
Channel 0 Bank busy for write cycles: 0
Channel 0
Rank 0
0banks busy for read cycles: 385940741
0banks busy for write cycles: 92659
1banks busy for read cycles: 16317568
1banks busy for write cycles: 10135653
2banks busy for read cycles: 11228914
2banks busy for write cycles: 5735109
3banks busy for read cycles: 1467381
3banks busy for write cycles: 1887809
4banks busy for read cycles: 524191
4banks busy for write cycles: 1166295
5banks busy for read cycles: 145342
5banks busy for write cycles: 771366
6banks busy for read cycles: 73267
6banks busy for write cycles: 517895
7banks busy for read cycles: 42115
7banks busy for write cycles: 360837
8banks busy for read cycles: 44144
8banks busy for write cycles: 278480

CPU 0 Branch Prediction Accuracy: 99.8427% MPKI: 0.281055 Average ROB Occupancy at Mispredict: 45.6491
Branch types
NOT_BRANCH: 164271271 82.1356%
BRANCH_DIRECT_JUMP: 1710627 0.855313%
BRANCH_INDIRECT: 9437221 4.71861%
BRANCH_CONDITIONAL: 18266195 9.1331%
BRANCH_DIRECT_CALL: 2475371 1.23769%
BRANCH_INDIRECT_CALL: 681721 0.34086%
BRANCH_RETURN: 3157566 1.57878%
BRANCH_OTHER: 0 0%

DRAM PAGES: 1048576
Allocated PAGES: 6173
