
*** ChampSim Multicore Out-of-Order Simulator ***

Warmup Instructions: 50000000
Simulation Instructions: 200000000
Number of CPUs: 1
LLC sets: 2048
LLC ways: 16
Off-chip DRAM Size: 4096 MB Channels: 1 Width: 64-bit Data Rate: 6400 MT/s
CPU 0 runs traces/spec2k17/srv_20.champsimtrace.xz
.xz
BTB has LRU replacement policy
ITLB has LRU replacement policy
DTLB has LRU replacement policy
STLB has LRU replacement policy
L1I has LRU replacement policy
CPU 0 L2C next line prefetcher
L1D has LRU replacement policy
Initialize SRRIP state for L2C
Initialize DRRIP state for LLC
Heartbeat CPU 0 instructions: 10000001 cycles: 2839986 heartbeat IPC: 3.52114 cumulative IPC: 3.52114 (Simulation time: 0 hr 0 min 34 sec) 
Heartbeat CPU 0 instructions: 20000003 cycles: 5668065 heartbeat IPC: 3.53597 cumulative IPC: 3.52854 (Simulation time: 0 hr 1 min 9 sec) 
Heartbeat CPU 0 instructions: 30000003 cycles: 8499988 heartbeat IPC: 3.53117 cumulative IPC: 3.52942 (Simulation time: 0 hr 1 min 43 sec) 
*** Reached end of trace for Core: 0 Repeating trace: traces/spec2k17/srv_20.champsimtrace.xz
Heartbeat CPU 0 instructions: 40000000 cycles: 11330771 heartbeat IPC: 3.53259 cumulative IPC: 3.53021 (Simulation time: 0 hr 2 min 19 sec) 
Heartbeat CPU 0 instructions: 50000003 cycles: 14158017 heartbeat IPC: 3.53701 cumulative IPC: 3.53157 (Simulation time: 0 hr 2 min 54 sec) 

Warmup complete CPU 0 instructions: 50000003 cycles: 14158017 (Simulation time: 0 hr 2 min 54 sec) 

Heartbeat CPU 0 instructions: 60000003 cycles: 46815139 heartbeat IPC: 0.306212 cumulative IPC: 0.306212 (Simulation time: 0 hr 3 min 52 sec) 
*** Reached end of trace for Core: 0 Repeating trace: traces/spec2k17/srv_20.champsimtrace.xz
Heartbeat CPU 0 instructions: 70000003 cycles: 79428703 heartbeat IPC: 0.306621 cumulative IPC: 0.306416 (Simulation time: 0 hr 4 min 50 sec) 
Heartbeat CPU 0 instructions: 80000000 cycles: 111862857 heartbeat IPC: 0.308317 cumulative IPC: 0.307047 (Simulation time: 0 hr 5 min 48 sec) 
Heartbeat CPU 0 instructions: 90000001 cycles: 144398968 heartbeat IPC: 0.307351 cumulative IPC: 0.307123 (Simulation time: 0 hr 6 min 49 sec) 
*** Reached end of trace for Core: 0 Repeating trace: traces/spec2k17/srv_20.champsimtrace.xz
Heartbeat CPU 0 instructions: 100000001 cycles: 177009576 heartbeat IPC: 0.306649 cumulative IPC: 0.307028 (Simulation time: 0 hr 7 min 50 sec) 
Heartbeat CPU 0 instructions: 110000000 cycles: 209488786 heartbeat IPC: 0.307889 cumulative IPC: 0.307171 (Simulation time: 0 hr 8 min 48 sec) 
Heartbeat CPU 0 instructions: 120000000 cycles: 242065030 heartbeat IPC: 0.306972 cumulative IPC: 0.307143 (Simulation time: 0 hr 9 min 45 sec) 
*** Reached end of trace for Core: 0 Repeating trace: traces/spec2k17/srv_20.champsimtrace.xz
Heartbeat CPU 0 instructions: 130000000 cycles: 274708270 heartbeat IPC: 0.306342 cumulative IPC: 0.307042 (Simulation time: 0 hr 10 min 44 sec) 
Heartbeat CPU 0 instructions: 140000000 cycles: 307198115 heartbeat IPC: 0.307788 cumulative IPC: 0.307125 (Simulation time: 0 hr 11 min 44 sec) 
Heartbeat CPU 0 instructions: 150000000 cycles: 339781018 heartbeat IPC: 0.306909 cumulative IPC: 0.307104 (Simulation time: 0 hr 12 min 44 sec) 
*** Reached end of trace for Core: 0 Repeating trace: traces/spec2k17/srv_20.champsimtrace.xz
Heartbeat CPU 0 instructions: 160000003 cycles: 372400232 heartbeat IPC: 0.306568 cumulative IPC: 0.307055 (Simulation time: 0 hr 13 min 42 sec) 
Heartbeat CPU 0 instructions: 170000001 cycles: 405018599 heartbeat IPC: 0.306576 cumulative IPC: 0.307015 (Simulation time: 0 hr 14 min 38 sec) 
Heartbeat CPU 0 instructions: 180000001 cycles: 437343228 heartbeat IPC: 0.309362 cumulative IPC: 0.307194 (Simulation time: 0 hr 15 min 36 sec) 
*** Reached end of trace for Core: 0 Repeating trace: traces/spec2k17/srv_20.champsimtrace.xz
Heartbeat CPU 0 instructions: 190000002 cycles: 469892652 heartbeat IPC: 0.307225 cumulative IPC: 0.307196 (Simulation time: 0 hr 16 min 33 sec) 
Heartbeat CPU 0 instructions: 200000000 cycles: 502544168 heartbeat IPC: 0.306264 cumulative IPC: 0.307134 (Simulation time: 0 hr 17 min 33 sec) 
Heartbeat CPU 0 instructions: 210000002 cycles: 534901675 heartbeat IPC: 0.309047 cumulative IPC: 0.307253 (Simulation time: 0 hr 18 min 31 sec) 
*** Reached end of trace for Core: 0 Repeating trace: traces/spec2k17/srv_20.champsimtrace.xz
Heartbeat CPU 0 instructions: 220000000 cycles: 567370149 heartbeat IPC: 0.307991 cumulative IPC: 0.307296 (Simulation time: 0 hr 19 min 30 sec) 
Heartbeat CPU 0 instructions: 230000000 cycles: 600006772 heartbeat IPC: 0.306404 cumulative IPC: 0.307247 (Simulation time: 0 hr 20 min 29 sec) 
Heartbeat CPU 0 instructions: 240000000 cycles: 632425464 heartbeat IPC: 0.308464 cumulative IPC: 0.30731 (Simulation time: 0 hr 21 min 25 sec) 
*** Reached end of trace for Core: 0 Repeating trace: traces/spec2k17/srv_20.champsimtrace.xz
Heartbeat CPU 0 instructions: 250000002 cycles: 664993879 heartbeat IPC: 0.307046 cumulative IPC: 0.307297 (Simulation time: 0 hr 22 min 26 sec) 
Finished CPU 0 instructions: 200000003 cycles: 650835863 cumulative IPC: 0.307297 (Simulation time: 0 hr 22 min 26 sec) 

ChampSim completed all CPUs

Region of Interest Statistics

CPU 0 cumulative IPC: 0.307297 instructions: 200000003 cycles: 650835863
ITLB TOTAL     ACCESS:   34721268  HIT:   32687583  MISS:    2033685  HIT %:    94.1428  MISS %:    5.85717   MPKI: 10.1684
ITLB LOAD TRANSLATION ACCESS:   34721268  HIT:   32687583  MISS:    2033685  HIT %:    94.1428  MISS %:    5.85717   MPKI: 10.1684
ITLB PREFETCH  REQUESTED:          0  ISSUED:          0  USEFUL:          0  USELESS:          0
ITLB USEFUL LOAD PREFETCHES:          0 PREFETCH ISSUED TO LOWER LEVEL:          0  ACCURACY: -nan
ITLB TIMELY PREFETCHES:          0 LATE PREFETCHES: 0 DROPPED PREFETCHES: 0
ITLB PREFETCHES SAME FILL-ORIGIN LEVEL: 0 DIFFERENT FILL-ORIGIN LEVEL: 0
ITLB AVERAGE MISS LATENCY: 9.04558 cycles
ITLB RQ	ACCESS:   40949608	FORWARD:          0	MERGED:    5743994	TO_CACHE:   35205614

DTLB TOTAL     ACCESS:   46494019  HIT:   44652205  MISS:    1841814  HIT %:    96.0386  MISS %:     3.9614   MPKI: 9.20907
DTLB LOAD TRANSLATION ACCESS:   46494019  HIT:   44652205  MISS:    1841814  HIT %:    96.0386  MISS %:     3.9614   MPKI: 9.20907
DTLB PREFETCH  REQUESTED:          0  ISSUED:          0  USEFUL:          0  USELESS:          0
DTLB USEFUL LOAD PREFETCHES:          0 PREFETCH ISSUED TO LOWER LEVEL:          0  ACCURACY: -nan
DTLB TIMELY PREFETCHES:          0 LATE PREFETCHES: 0 DROPPED PREFETCHES: 0
DTLB PREFETCHES SAME FILL-ORIGIN LEVEL: 0 DIFFERENT FILL-ORIGIN LEVEL: 0
DTLB AVERAGE MISS LATENCY: 9.18804 cycles
DTLB RQ	ACCESS:   61138077	FORWARD:          0	MERGED:   14578853	TO_CACHE:   46559224

STLB TOTAL     ACCESS:    6468962  HIT:    6460653  MISS:       8309  HIT %:    99.8716  MISS %:   0.128444   MPKI: 0.041545
STLB LOAD TRANSLATION ACCESS:    3875499  HIT:    3867320  MISS:       8179  HIT %:     99.789  MISS %:   0.211044   MPKI: 0.040895
STLB TRANSLATION FROM L1D PREFETCHER ACCESS:    2593463  HIT:    2593333  MISS:        130  HIT %:     99.995  MISS %:  0.0050126   MPKI: 0.00065
STLB PREFETCH  REQUESTED:          0  ISSUED:          0  USEFUL:        120  USELESS:         10
STLB USEFUL LOAD PREFETCHES:        120 PREFETCH ISSUED TO LOWER LEVEL:          0  ACCURACY: inf
STLB TIMELY PREFETCHES:        120 LATE PREFETCHES: 128 DROPPED PREFETCHES: 9213
STLB PREFETCHES SAME FILL-ORIGIN LEVEL: 0 DIFFERENT FILL-ORIGIN LEVEL: 0
STLB AVERAGE MISS LATENCY: 68141.7 cycles
STLB RQ	ACCESS:    6671093	FORWARD:          0	MERGED:     192339	TO_CACHE:    6478754

STLB Hit, L1D data hit: 0
STLB Hit, L2C data hit: 0
STLB Hit, LLC data hit: 0
STLB Hit, LLC data miss: 0
STLB STLB hints to L2: 0
L1D TOTAL     ACCESS:   61331249  HIT:   55707074  MISS:    5624175  HIT %:    90.8298  MISS %:    9.17016   MPKI: 28.1209
L1D LOAD      ACCESS:   34221571  HIT:   31489598  MISS:    2731973  HIT %:    92.0168  MISS %:    7.98319   MPKI: 13.6599
L1D RFO       ACCESS:   25020799  HIT:   23867667  MISS:    1153132  HIT %:    95.3913  MISS %:    4.60869   MPKI: 5.76566
L1D PREFETCH  ACCESS:    2088879  HIT:     349809  MISS:    1739070  HIT %:    16.7463  MISS %:    83.2537   MPKI: 8.69535
AGUS PREFETCH L1 MISS: 0
L1D PREFETCH  REQUESTED:    5648387  ISSUED:    5648386  USEFUL:     379588  USELESS:    1359678
L1D USEFUL LOAD PREFETCHES:     379588 PREFETCH ISSUED TO LOWER LEVEL:    1850884  ACCURACY: 20.5085
L1D TIMELY PREFETCHES:     379588 LATE PREFETCHES: 111106 DROPPED PREFETCHES: 9775
L1D PREFETCHES SAME FILL-ORIGIN LEVEL: 1850884 DIFFERENT FILL-ORIGIN LEVEL: 0
L1D AVERAGE MISS LATENCY: 6.71731e+06 cycles
L1D RQ	ACCESS:   47511316	FORWARD:          0	MERGED:   12866113	TO_CACHE:   34346565
L1D WQ	ACCESS:   26961101	FORWARD:     298848	MERGED:     169589	TO_CACHE:   26791512
L1D PQ	ACCESS:    2852792	FORWARD:          0	MERGED:      56988	TO_CACHE:    2795594

L1D UNIQUE REGIONS ACCESSED: 0
L1D REGIONS CONFLICTS: 0
L1D Cross Page Prefetch Requests: 59515
L1D Same Page Prefetch Requests: 3489009
L1D ROI Sum of L1D PQ occupancy: 36402858
L1D PREFETCHES PUSHED FROM L2C: 0
L1I TOTAL     ACCESS:   39411701  HIT:   28795192  MISS:   10616509  HIT %:    73.0625  MISS %:    26.9375   MPKI: 53.0825
L1I LOAD      ACCESS:   39411701  HIT:   28795192  MISS:   10616509  HIT %:    73.0625  MISS %:    26.9375   MPKI: 53.0825
L1I PREFETCH  REQUESTED:          0  ISSUED:          0  USEFUL:          0  USELESS:          0
L1I USEFUL LOAD PREFETCHES:          0 PREFETCH ISSUED TO LOWER LEVEL:          0  ACCURACY: -nan
L1I TIMELY PREFETCHES:          0 LATE PREFETCHES: 0 DROPPED PREFETCHES: 0
L1I PREFETCHES SAME FILL-ORIGIN LEVEL: 0 DIFFERENT FILL-ORIGIN LEVEL: 0
L1I AVERAGE MISS LATENCY: 17.6457 cycles
L1I RQ	ACCESS:   57969853	FORWARD:          0	MERGED:   17020245	TO_CACHE:   40949608

BTB TOTAL     ACCESS:   29994004  HIT:   17272559  MISS:   12721445  HIT %:    57.5867  MISS %:    42.4133   MPKI: 63.6072
BTB BRANCH_DIRECT_JUMP	ACCESS:    2025965  HIT:    1135056  MISS:     890909
BTB BRANCH_INDIRECT	ACCESS:   11876543  HIT:    7045667  MISS:    4830876
BTB BRANCH_CONDITIONAL	ACCESS:    7549910  HIT:    6212601  MISS:    1337309
BTB BRANCH_DIRECT_CALL	ACCESS:    3602864  HIT:    1507613  MISS:    2095251
BTB BRANCH_INDIRECT_CALL	ACCESS:     667964  HIT:     262432  MISS:     405532
BTB BRANCH_RETURN	ACCESS:    4270758  HIT:    1109190  MISS:    3161568
BTB BRANCH_OTHER ACCESS:          0  HIT:          0  MISS:          0

L2C TOTAL     ACCESS:   18386392  HIT:   16053964  MISS:    2332428  HIT %:    87.3144  MISS %:    12.6856   MPKI: 11.6621
L2C LOAD      ACCESS:   13237290  HIT:   11655997  MISS:    1581293  HIT %:    88.0543  MISS %:    11.9457   MPKI: 7.90646
L2C DATA LOAD MPKI: 1.63017
L2C INSTRUCTION LOAD MPKI: 6.27629
L2C RFO       ACCESS:    1152415  HIT:     900556  MISS:     251859  HIT %:    78.1451  MISS %:    21.8549   MPKI: 1.25929
L2C PREFETCH  ACCESS:    1850884  HIT:    1421793  MISS:     429091  HIT %:     76.817  MISS %:     23.183   MPKI: 2.14545
AGUS PREFETCH L1 MISS: 0
L2C DATA PREFETCH MPKI: 2.14545
L2C INSTRUCTION PREFETCH MPKI: 0
L2C WRITEBACK ACCESS:    2121239  HIT:    2060454  MISS:      60785  HIT %:    97.1345  MISS %:    2.86554   MPKI: 0.303925
L2C LOAD TRANSLATION ACCESS:       8906  HIT:       2505  MISS:       6401  HIT %:    28.1271  MISS %:    71.8729   MPKI: 0.032005
L2C TRANSLATION FROM L1D PREFETCHER ACCESS:      15658  HIT:      12659  MISS:       2999  HIT %:    80.8469  MISS %:    19.1531   MPKI: 0.014995
L2C PREFETCH  REQUESTED:          0  ISSUED:          0  USEFUL:      20319  USELESS:     412194
L2C USEFUL LOAD PREFETCHES:      20319 PREFETCH ISSUED TO LOWER LEVEL:     429091  ACCURACY: 4.73536
L2C TIMELY PREFETCHES:      20319 LATE PREFETCHES: 0 DROPPED PREFETCHES: 0
L2C PREFETCHES SAME FILL-ORIGIN LEVEL: 0 DIFFERENT FILL-ORIGIN LEVEL: 0
L2C AVERAGE MISS LATENCY: 32.2608 cycles
L2C RQ	ACCESS:   14414363	FORWARD:          0	MERGED:          0	TO_CACHE:   14414269
L2C WQ	ACCESS:    2121239	FORWARD:         94	MERGED:          0	TO_CACHE:    2121239
L2C PQ	ACCESS:    1850884	FORWARD:          0	MERGED:          0	TO_CACHE:    1850884

L2C Instructions Evicting Data 534973
L2C Translations Evicting Data 6027
L2C Data Evicting Data 499718
L2C Instructions Evicting Instructions 716576
L2C Translations Evicting Instructions 3309
L2C Data Evicting Instructions 501769
L2C Instructions Evicting Translations 3709
L2C Translations Evicting Translations 64
L2C Data Evicting Translations 5498
L2C Dense regions hint from L2: 0
PSCL5 TOTAL     ACCESS:      17522  HIT:      17522  MISS:          0  HIT %:        100  MISS %:          0   MPKI: 0
PSCL5 LOAD TRANSLATION ACCESS:       8051  HIT:       8051  MISS:          0  HIT %:        100  MISS %:          0   MPKI: 0
PSCL5 TRANSLATION FROM L1D PREFETCHER ACCESS:       9471  HIT:       9471  MISS:          0  HIT %:        100  MISS %:          0   MPKI: 0
PSCL5 PREFETCH  REQUESTED:          0  ISSUED:          0  USEFUL:          0  USELESS:          0
PSCL5 USEFUL LOAD PREFETCHES:          0 PREFETCH ISSUED TO LOWER LEVEL:          0  ACCURACY: -nan
PSCL5 TIMELY PREFETCHES:          0 LATE PREFETCHES: 0 DROPPED PREFETCHES: 0
PSCL5 PREFETCHES SAME FILL-ORIGIN LEVEL: 0 DIFFERENT FILL-ORIGIN LEVEL: 0

PSCL4 TOTAL     ACCESS:      14184  HIT:      14088  MISS:         96  HIT %:    99.3232  MISS %:   0.676819   MPKI: 0.00048
PSCL4 LOAD TRANSLATION ACCESS:       7478  HIT:       7382  MISS:         96  HIT %:    98.7162  MISS %:    1.28377   MPKI: 0.00048
PSCL4 TRANSLATION FROM L1D PREFETCHER ACCESS:       6706  HIT:       6706  MISS:          0  HIT %:        100  MISS %:          0   MPKI: 0
PSCL4 PREFETCH  REQUESTED:          0  ISSUED:          0  USEFUL:          0  USELESS:          0
PSCL4 USEFUL LOAD PREFETCHES:          0 PREFETCH ISSUED TO LOWER LEVEL:          0  ACCURACY: -nan
PSCL4 TIMELY PREFETCHES:          0 LATE PREFETCHES: 0 DROPPED PREFETCHES: 0
PSCL4 PREFETCHES SAME FILL-ORIGIN LEVEL: 0 DIFFERENT FILL-ORIGIN LEVEL: 0

PSCL3 TOTAL     ACCESS:      16971  HIT:      16875  MISS:         96  HIT %:    99.4343  MISS %:   0.565671   MPKI: 0.00048
PSCL3 LOAD TRANSLATION ACCESS:       7678  HIT:       7582  MISS:         96  HIT %:    98.7497  MISS %:    1.25033   MPKI: 0.00048
PSCL3 TRANSLATION FROM L1D PREFETCHER ACCESS:       9293  HIT:       9293  MISS:          0  HIT %:        100  MISS %:          0   MPKI: 0
PSCL3 PREFETCH  REQUESTED:          0  ISSUED:          0  USEFUL:          0  USELESS:          0
PSCL3 USEFUL LOAD PREFETCHES:          0 PREFETCH ISSUED TO LOWER LEVEL:          0  ACCURACY: -nan
PSCL3 TIMELY PREFETCHES:          0 LATE PREFETCHES: 0 DROPPED PREFETCHES: 0
PSCL3 PREFETCHES SAME FILL-ORIGIN LEVEL: 0 DIFFERENT FILL-ORIGIN LEVEL: 0

PSCL2 TOTAL     ACCESS:      11542  HIT:      10878  MISS:        664  HIT %:    94.2471  MISS %:     5.7529   MPKI: 0.00332
PSCL2 LOAD TRANSLATION ACCESS:       8052  HIT:       7388  MISS:        664  HIT %:    91.7536  MISS %:     8.2464   MPKI: 0.00332
PSCL2 TRANSLATION FROM L1D PREFETCHER ACCESS:       3490  HIT:       3490  MISS:          0  HIT %:        100  MISS %:          0   MPKI: 0
PSCL2 PREFETCH  REQUESTED:          0  ISSUED:          0  USEFUL:          0  USELESS:          0
PSCL2 USEFUL LOAD PREFETCHES:          0 PREFETCH ISSUED TO LOWER LEVEL:          0  ACCURACY: -nan
PSCL2 TIMELY PREFETCHES:          0 LATE PREFETCHES: 0 DROPPED PREFETCHES: 0
PSCL2 PREFETCHES SAME FILL-ORIGIN LEVEL: 0 DIFFERENT FILL-ORIGIN LEVEL: 0

LLC TOTAL     ACCESS:    2624662  HIT:    2578502  MISS:      46160  HIT %:    98.2413  MISS %:     1.7587   MPKI: 0.2308
LLC LOAD      ACCESS:    1581293  HIT:    1569944  MISS:      11349  HIT %:    99.2823  MISS %:   0.717704   MPKI: 0.056745
LLC RFO       ACCESS:     251859  HIT:     231729  MISS:      20130  HIT %:    92.0074  MISS %:    7.99257   MPKI: 0.10065
LLC PREFETCH  ACCESS:     429091  HIT:     415110  MISS:      13981  HIT %:    96.7417  MISS %:    3.25828   MPKI: 0.069905
AGUS PREFETCH L1 MISS: 0
LLC WRITEBACK ACCESS:     353019  HIT:     352634  MISS:        385  HIT %:    99.8909  MISS %:   0.109059   MPKI: 0.001925
LLC LOAD TRANSLATION ACCESS:       6401  HIT:       6108  MISS:        293  HIT %:    95.4226  MISS %:    4.57741   MPKI: 0.001465
LLC TRANSLATION FROM L1D PREFETCHER ACCESS:       2999  HIT:       2977  MISS:         22  HIT %:    99.2664  MISS %:   0.733578   MPKI: 0.00011
LLC PREFETCH  REQUESTED:          0  ISSUED:          0  USEFUL:       2008  USELESS:      11817
LLC USEFUL LOAD PREFETCHES:       2008 PREFETCH ISSUED TO LOWER LEVEL:      13981  ACCURACY: 14.3623
LLC TIMELY PREFETCHES:       2008 LATE PREFETCHES: 0 DROPPED PREFETCHES: 0
LLC PREFETCHES SAME FILL-ORIGIN LEVEL: 0 DIFFERENT FILL-ORIGIN LEVEL: 0
LLC AVERAGE MISS LATENCY: 153.719 cycles
LLC RQ	ACCESS:    1842552	FORWARD:          0	MERGED:          0	TO_CACHE:    1842552
LLC WQ	ACCESS:     353019	FORWARD:          0	MERGED:          0	TO_CACHE:     353019
LLC PQ	ACCESS:     429091	FORWARD:          0	MERGED:          0	TO_CACHE:     429091

LLC Dense regions hint to LLC: 0

RAW hits: 1426619
Loads Generated: 48937935
Loads sent to L1D: 47511316
Stores Generated: 26961103
Stores sent to L1D: 26961101
Major fault: 0 Minor fault: 1949
Allocated PAGES: 1949
CPU 0 L1d next line prefetcher final stats

-63,280
-62,284
-61,279
-60,258
-59,234
-58,247
-57,283
-56,306
-55,229
-54,233
-53,255
-52,245
-51,218
-50,342
-49,182
-48,299
-47,213
-46,312
-45,312
-44,330
-43,254
-42,322
-41,274
-40,416
-39,282
-38,290
-37,261
-36,387
-35,340
-34,295
-33,371
-32,404
-31,290
-30,380
-29,341
-28,369
-27,389
-26,391
-25,409
-24,412
-23,548
-22,481
-21,553
-20,546
-19,612
-18,672
-17,766
-16,805
-15,764
-14,1070
-13,1091
-12,1169
-11,1159
-10,1280
-9,1308
-8,1602
-7,1673
-6,1921
-5,1910
-4,2166
-3,2536
-2,3475
-1,4701
0,5548
1,5900
2,5428
3,4697
4,4436
5,4016
6,4033
7,3526
8,3609
9,3280
10,2989
11,2826
12,2598
13,2293
14,2183
15,1958
16,1902
17,1911
18,1775
19,1550
20,1421
21,1400
22,1285
23,1374
24,1418
25,1310
26,1193
27,1189
28,1010
29,928
30,1000
31,1071
32,1142
33,905
34,811
35,874
36,915
37,870
38,830
39,815
40,889
41,763
42,738
43,664
44,639
45,606
46,547
47,508
48,539
49,468
50,431
51,492
52,480
53,446
54,493
55,487
56,549
57,499
58,503
59,442
60,545
61,463
62,510
63,474

DRAM Statistics
 CHANNEL 0
 RQ ROW_BUFFER_HIT:      12517  ROW_BUFFER_MISS:      33231
 DBUS_CONGESTED:         41
 WQ ROW_BUFFER_HIT:       3138  ROW_BUFFER_MISS:      19252  FULL:          0

 AVG_CONGESTED_CYCLE: 5
 All warmup complete: 2
Channel 0 Bank busy for read cycles: 0
Channel 0 Bank busy for write cycles: 0
Channel 0
Rank 0
0banks busy for read cycles: 646296045
0banks busy for write cycles: 7637
1banks busy for read cycles: 1749178
1banks busy for write cycles: 926533
2banks busy for read cycles: 531703
2banks busy for write cycles: 232154
3banks busy for read cycles: 220093
3banks busy for write cycles: 97024
4banks busy for read cycles: 150968
4banks busy for write cycles: 66767
5banks busy for read cycles: 98404
5banks busy for write cycles: 56959
6banks busy for read cycles: 71466
6banks busy for write cycles: 46157
7banks busy for read cycles: 52962
7banks busy for write cycles: 50351
8banks busy for read cycles: 30963
8banks busy for write cycles: 150500

CPU 0 Branch Prediction Accuracy: 99.8849% MPKI: 0.202245 Average ROB Occupancy at Mispredict: 31.7755
Branch types
NOT_BRANCH: 164866975 82.4335%
BRANCH_DIRECT_JUMP: 2025965 1.01298%
BRANCH_INDIRECT: 11876543 5.93827%
BRANCH_CONDITIONAL: 12688706 6.34435%
BRANCH_DIRECT_CALL: 3602864 1.80143%
BRANCH_INDIRECT_CALL: 667964 0.333982%
BRANCH_RETURN: 4270758 2.13538%
BRANCH_OTHER: 0 0%

DRAM PAGES: 1048576
Allocated PAGES: 1949
