
*** ChampSim Multicore Out-of-Order Simulator ***

Warmup Instructions: 50000000
Simulation Instructions: 200000000
Number of CPUs: 1
LLC sets: 2048
LLC ways: 16
Off-chip DRAM Size: 4096 MB Channels: 1 Width: 64-bit Data Rate: 6400 MT/s
CPU 0 runs traces/spec2k17/srv_56.champsimtrace.xz
.xz
BTB has LRU replacement policy
ITLB has LRU replacement policy
DTLB has LRU replacement policy
STLB has LRU replacement policy
L1I has LRU replacement policy
CPU 0 L2C next line prefetcher
L1D has LRU replacement policy
Initialize SRRIP state for L2C
Initialize DRRIP state for LLC
Heartbeat CPU 0 instructions: 10000002 cycles: 2777161 heartbeat IPC: 3.6008 cumulative IPC: 3.6008 (Simulation time: 0 hr 0 min 39 sec) 
Heartbeat CPU 0 instructions: 20000003 cycles: 5608449 heartbeat IPC: 3.53196 cumulative IPC: 3.56605 (Simulation time: 0 hr 1 min 21 sec) 
Heartbeat CPU 0 instructions: 30000000 cycles: 8388417 heartbeat IPC: 3.59716 cumulative IPC: 3.57636 (Simulation time: 0 hr 1 min 57 sec) 
*** Reached end of trace for Core: 0 Repeating trace: traces/spec2k17/srv_56.champsimtrace.xz
Heartbeat CPU 0 instructions: 40000000 cycles: 11176444 heartbeat IPC: 3.58677 cumulative IPC: 3.57896 (Simulation time: 0 hr 2 min 35 sec) 
Heartbeat CPU 0 instructions: 50000002 cycles: 14008464 heartbeat IPC: 3.53105 cumulative IPC: 3.56927 (Simulation time: 0 hr 3 min 13 sec) 

Warmup complete CPU 0 instructions: 50000002 cycles: 14008464 (Simulation time: 0 hr 3 min 13 sec) 

Heartbeat CPU 0 instructions: 60000000 cycles: 30990306 heartbeat IPC: 0.588864 cumulative IPC: 0.588864 (Simulation time: 0 hr 4 min 2 sec) 
*** Reached end of trace for Core: 0 Repeating trace: traces/spec2k17/srv_56.champsimtrace.xz
Heartbeat CPU 0 instructions: 70000003 cycles: 48242833 heartbeat IPC: 0.579625 cumulative IPC: 0.584208 (Simulation time: 0 hr 4 min 52 sec) 
Heartbeat CPU 0 instructions: 80000002 cycles: 64409858 heartbeat IPC: 0.618543 cumulative IPC: 0.595222 (Simulation time: 0 hr 5 min 42 sec) 
Heartbeat CPU 0 instructions: 90000000 cycles: 81453149 heartbeat IPC: 0.586741 cumulative IPC: 0.593079 (Simulation time: 0 hr 6 min 32 sec) 
*** Reached end of trace for Core: 0 Repeating trace: traces/spec2k17/srv_56.champsimtrace.xz
Heartbeat CPU 0 instructions: 100000000 cycles: 98588669 heartbeat IPC: 0.583583 cumulative IPC: 0.591155 (Simulation time: 0 hr 7 min 26 sec) 
Heartbeat CPU 0 instructions: 110000000 cycles: 114556539 heartbeat IPC: 0.626258 cumulative IPC: 0.596729 (Simulation time: 0 hr 8 min 20 sec) 
Heartbeat CPU 0 instructions: 120000003 cycles: 131906420 heartbeat IPC: 0.576373 cumulative IPC: 0.593734 (Simulation time: 0 hr 9 min 10 sec) 
*** Reached end of trace for Core: 0 Repeating trace: traces/spec2k17/srv_56.champsimtrace.xz
Heartbeat CPU 0 instructions: 130000002 cycles: 148998529 heartbeat IPC: 0.585065 cumulative IPC: 0.592636 (Simulation time: 0 hr 9 min 58 sec) 
Heartbeat CPU 0 instructions: 140000001 cycles: 165213428 heartbeat IPC: 0.616717 cumulative IPC: 0.595219 (Simulation time: 0 hr 10 min 49 sec) 
Heartbeat CPU 0 instructions: 150000002 cycles: 182342447 heartbeat IPC: 0.583805 cumulative IPC: 0.594057 (Simulation time: 0 hr 11 min 41 sec) 
*** Reached end of trace for Core: 0 Repeating trace: traces/spec2k17/srv_56.champsimtrace.xz
Heartbeat CPU 0 instructions: 160000002 cycles: 199417951 heartbeat IPC: 0.585634 cumulative IPC: 0.593281 (Simulation time: 0 hr 12 min 30 sec) 
Heartbeat CPU 0 instructions: 170000000 cycles: 215874571 heartbeat IPC: 0.607658 cumulative IPC: 0.594453 (Simulation time: 0 hr 13 min 23 sec) 
Heartbeat CPU 0 instructions: 180000001 cycles: 232630067 heartbeat IPC: 0.596819 cumulative IPC: 0.594635 (Simulation time: 0 hr 14 min 14 sec) 
*** Reached end of trace for Core: 0 Repeating trace: traces/spec2k17/srv_56.champsimtrace.xz
Heartbeat CPU 0 instructions: 190000002 cycles: 249721622 heartbeat IPC: 0.585084 cumulative IPC: 0.593942 (Simulation time: 0 hr 15 min 3 sec) 
Heartbeat CPU 0 instructions: 200000001 cycles: 266410109 heartbeat IPC: 0.599215 cumulative IPC: 0.594291 (Simulation time: 0 hr 15 min 53 sec) 
Heartbeat CPU 0 instructions: 210000000 cycles: 282962405 heartbeat IPC: 0.604146 cumulative IPC: 0.594897 (Simulation time: 0 hr 16 min 45 sec) 
*** Reached end of trace for Core: 0 Repeating trace: traces/spec2k17/srv_56.champsimtrace.xz
Heartbeat CPU 0 instructions: 220000000 cycles: 299906102 heartbeat IPC: 0.59019 cumulative IPC: 0.594618 (Simulation time: 0 hr 17 min 36 sec) 
Heartbeat CPU 0 instructions: 230000000 cycles: 316849217 heartbeat IPC: 0.59021 cumulative IPC: 0.594372 (Simulation time: 0 hr 18 min 29 sec) 
Heartbeat CPU 0 instructions: 240000001 cycles: 333092395 heartbeat IPC: 0.615643 cumulative IPC: 0.595455 (Simulation time: 0 hr 19 min 20 sec) 
*** Reached end of trace for Core: 0 Repeating trace: traces/spec2k17/srv_56.champsimtrace.xz
Heartbeat CPU 0 instructions: 250000002 cycles: 350038321 heartbeat IPC: 0.590112 cumulative IPC: 0.595185 (Simulation time: 0 hr 20 min 9 sec) 
Finished CPU 0 instructions: 200000000 cycles: 336029857 cumulative IPC: 0.595185 (Simulation time: 0 hr 20 min 9 sec) 

ChampSim completed all CPUs

Region of Interest Statistics

CPU 0 cumulative IPC: 0.595185 instructions: 200000000 cycles: 336029857
ITLB TOTAL     ACCESS:   34934403  HIT:   34116861  MISS:     817542  HIT %:    97.6598  MISS %:    2.34022   MPKI: 4.08771
ITLB LOAD TRANSLATION ACCESS:   34934403  HIT:   34116861  MISS:     817542  HIT %:    97.6598  MISS %:    2.34022   MPKI: 4.08771
ITLB PREFETCH  REQUESTED:          0  ISSUED:          0  USEFUL:          0  USELESS:          0
ITLB USEFUL LOAD PREFETCHES:          0 PREFETCH ISSUED TO LOWER LEVEL:          0  ACCURACY: -nan
ITLB TIMELY PREFETCHES:          0 LATE PREFETCHES: 0 DROPPED PREFETCHES: 0
ITLB PREFETCHES SAME FILL-ORIGIN LEVEL: 0 DIFFERENT FILL-ORIGIN LEVEL: 0
ITLB AVERAGE MISS LATENCY: 9.34486 cycles
ITLB RQ	ACCESS:   39789676	FORWARD:          0	MERGED:    4573973	TO_CACHE:   35215703

DTLB TOTAL     ACCESS:   40100733  HIT:   39200896  MISS:     899837  HIT %:    97.7561  MISS %:    2.24394   MPKI: 4.49918
DTLB LOAD TRANSLATION ACCESS:   40100733  HIT:   39200896  MISS:     899837  HIT %:    97.7561  MISS %:    2.24394   MPKI: 4.49918
DTLB PREFETCH  REQUESTED:          0  ISSUED:          0  USEFUL:          0  USELESS:          0
DTLB USEFUL LOAD PREFETCHES:          0 PREFETCH ISSUED TO LOWER LEVEL:          0  ACCURACY: -nan
DTLB TIMELY PREFETCHES:          0 LATE PREFETCHES: 0 DROPPED PREFETCHES: 0
DTLB PREFETCHES SAME FILL-ORIGIN LEVEL: 0 DIFFERENT FILL-ORIGIN LEVEL: 0
DTLB AVERAGE MISS LATENCY: 14.8213 cycles
DTLB RQ	ACCESS:   54922744	FORWARD:          0	MERGED:   14772366	TO_CACHE:   40150378

STLB TOTAL     ACCESS:    2573234  HIT:    2520196  MISS:      53038  HIT %:    97.9389  MISS %:    2.06114   MPKI: 0.26519
STLB LOAD TRANSLATION ACCESS:    1717379  HIT:    1664904  MISS:      52475  HIT %:    96.9445  MISS %:    3.05553   MPKI: 0.262375
STLB TRANSLATION FROM L1D PREFETCHER ACCESS:     855855  HIT:     855292  MISS:        563  HIT %:    99.9342  MISS %:  0.0657822   MPKI: 0.002815
STLB PREFETCH  REQUESTED:          0  ISSUED:          0  USEFUL:        468  USELESS:         96
STLB USEFUL LOAD PREFETCHES:        468 PREFETCH ISSUED TO LOWER LEVEL:          0  ACCURACY: inf
STLB TIMELY PREFETCHES:        468 LATE PREFETCHES: 6 DROPPED PREFETCHES: 4906
STLB PREFETCHES SAME FILL-ORIGIN LEVEL: 0 DIFFERENT FILL-ORIGIN LEVEL: 0
STLB AVERAGE MISS LATENCY: 104.293 cycles
STLB RQ	ACCESS:    2680346	FORWARD:          0	MERGED:     101913	TO_CACHE:    2578433

STLB Hit, L1D data hit: 0
STLB Hit, L2C data hit: 0
STLB Hit, LLC data hit: 0
STLB Hit, LLC data miss: 0
STLB STLB hints to L2: 0
L1D TOTAL     ACCESS:   55186693  HIT:   53267939  MISS:    1918754  HIT %:    96.5232  MISS %:    3.47684   MPKI: 9.59377
L1D LOAD      ACCESS:   33241232  HIT:   32304051  MISS:     937181  HIT %:    97.1807  MISS %:    2.81933   MPKI: 4.6859
L1D RFO       ACCESS:   21155143  HIT:   20809568  MISS:     345575  HIT %:    98.3665  MISS %:    1.63353   MPKI: 1.72788
L1D PREFETCH  ACCESS:     790318  HIT:     154320  MISS:     635998  HIT %:    19.5263  MISS %:    80.4737   MPKI: 3.17999
AGUS PREFETCH L1 MISS: 0
L1D PREFETCH  REQUESTED:    1940220  ISSUED:    1940220  USEFUL:     128132  USELESS:     507783
L1D USEFUL LOAD PREFETCHES:     128132 PREFETCH ISSUED TO LOWER LEVEL:     672906  ACCURACY: 19.0416
L1D TIMELY PREFETCHES:     128132 LATE PREFETCHES: 35152 DROPPED PREFETCHES: 5407
L1D PREFETCHES SAME FILL-ORIGIN LEVEL: 672906 DIFFERENT FILL-ORIGIN LEVEL: 0
L1D AVERAGE MISS LATENCY: 3.47534e+06 cycles
L1D RQ	ACCESS:   47512823	FORWARD:          0	MERGED:   13957312	TO_CACHE:   33282080
L1D WQ	ACCESS:   21914197	FORWARD:     273646	MERGED:     273533	TO_CACHE:   21640664
L1D PQ	ACCESS:     977253	FORWARD:          0	MERGED:      14071	TO_CACHE:     962967

L1D UNIQUE REGIONS ACCESSED: 0
L1D REGIONS CONFLICTS: 0
L1D Cross Page Prefetch Requests: 44522
L1D Same Page Prefetch Requests: 1171330
L1D ROI Sum of L1D PQ occupancy: 12692971
L1D PREFETCHES PUSHED FROM L2C: 0
L1I TOTAL     ACCESS:   39319242  HIT:   36679481  MISS:    2639761  HIT %:    93.2863  MISS %:    6.71366   MPKI: 13.1988
L1I LOAD      ACCESS:   39319242  HIT:   36679481  MISS:    2639761  HIT %:    93.2863  MISS %:    6.71366   MPKI: 13.1988
L1I PREFETCH  REQUESTED:          0  ISSUED:          0  USEFUL:          0  USELESS:          0
L1I USEFUL LOAD PREFETCHES:          0 PREFETCH ISSUED TO LOWER LEVEL:          0  ACCURACY: -nan
L1I TIMELY PREFETCHES:          0 LATE PREFETCHES: 0 DROPPED PREFETCHES: 0
L1I PREFETCHES SAME FILL-ORIGIN LEVEL: 0 DIFFERENT FILL-ORIGIN LEVEL: 0
L1I AVERAGE MISS LATENCY: 18.6485 cycles
L1I RQ	ACCESS:   62198575	FORWARD:          0	MERGED:   22408899	TO_CACHE:   39789676

BTB TOTAL     ACCESS:   32613613  HIT:   28976968  MISS:    3636645  HIT %:    88.8493  MISS %:    11.1507   MPKI: 18.1832
BTB BRANCH_DIRECT_JUMP	ACCESS:    3424496  HIT:    3239376  MISS:     185120
BTB BRANCH_INDIRECT	ACCESS:   12879305  HIT:   11560314  MISS:    1318991
BTB BRANCH_CONDITIONAL	ACCESS:    8936157  HIT:    8698809  MISS:     237348
BTB BRANCH_DIRECT_CALL	ACCESS:    2777775  HIT:    2446309  MISS:     331466
BTB BRANCH_INDIRECT_CALL	ACCESS:     909063  HIT:     766967  MISS:     142096
BTB BRANCH_RETURN	ACCESS:    3686817  HIT:    2265193  MISS:    1421624
BTB BRANCH_OTHER ACCESS:          0  HIT:          0  MISS:          0

L2C TOTAL     ACCESS:    5273138  HIT:    4320069  MISS:     953069  HIT %:     81.926  MISS %:     18.074   MPKI: 4.76534
L2C LOAD      ACCESS:    3541718  HIT:    2940135  MISS:     601583  HIT %:    83.0144  MISS %:    16.9856   MPKI: 3.00792
L2C DATA LOAD MPKI: 1.08605
L2C INSTRUCTION LOAD MPKI: 1.92186
L2C RFO       ACCESS:     343767  HIT:     253907  MISS:      89860  HIT %:    73.8602  MISS %:    26.1398   MPKI: 0.4493
L2C PREFETCH  ACCESS:     672906  HIT:     463648  MISS:     209258  HIT %:    68.9023  MISS %:    31.0977   MPKI: 1.04629
AGUS PREFETCH L1 MISS: 0
L2C DATA PREFETCH MPKI: 1.04629
L2C INSTRUCTION PREFETCH MPKI: 0
L2C WRITEBACK ACCESS:     609193  HIT:     597518  MISS:      11675  HIT %:    98.0835  MISS %:    1.91647   MPKI: 0.058375
L2C LOAD TRANSLATION ACCESS:      97442  HIT:      58549  MISS:      38893  HIT %:     60.086  MISS %:     39.914   MPKI: 0.194465
L2C TRANSLATION FROM L1D PREFETCHER ACCESS:       8112  HIT:       6312  MISS:       1800  HIT %:    77.8107  MISS %:    22.1893   MPKI: 0.009
L2C PREFETCH  REQUESTED:          0  ISSUED:          0  USEFUL:      11269  USELESS:     199621
L2C USEFUL LOAD PREFETCHES:      11269 PREFETCH ISSUED TO LOWER LEVEL:     209258  ACCURACY: 5.38522
L2C TIMELY PREFETCHES:      11269 LATE PREFETCHES: 0 DROPPED PREFETCHES: 0
L2C PREFETCHES SAME FILL-ORIGIN LEVEL: 0 DIFFERENT FILL-ORIGIN LEVEL: 0
L2C AVERAGE MISS LATENCY: 57.6574 cycles
L2C RQ	ACCESS:    3991163	FORWARD:          0	MERGED:          0	TO_CACHE:    3991039
L2C WQ	ACCESS:     609193	FORWARD:        124	MERGED:          0	TO_CACHE:     609193
L2C PQ	ACCESS:     672906	FORWARD:          0	MERGED:          0	TO_CACHE:     672906

L2C Instructions Evicting Data 171264
L2C Translations Evicting Data 29290
L2C Data Evicting Data 321016
L2C Instructions Evicting Instructions 204479
L2C Translations Evicting Instructions 7596
L2C Data Evicting Instructions 167537
L2C Instructions Evicting Translations 8630
L2C Translations Evicting Translations 3807
L2C Data Evicting Translations 27775
L2C Dense regions hint from L2: 0
PSCL5 TOTAL     ACCESS:      57944  HIT:      57944  MISS:          0  HIT %:        100  MISS %:          0   MPKI: 0
PSCL5 LOAD TRANSLATION ACCESS:      52469  HIT:      52469  MISS:          0  HIT %:        100  MISS %:          0   MPKI: 0
PSCL5 TRANSLATION FROM L1D PREFETCHER ACCESS:       5475  HIT:       5475  MISS:          0  HIT %:        100  MISS %:          0   MPKI: 0
PSCL5 PREFETCH  REQUESTED:          0  ISSUED:          0  USEFUL:          0  USELESS:          0
PSCL5 USEFUL LOAD PREFETCHES:          0 PREFETCH ISSUED TO LOWER LEVEL:          0  ACCURACY: -nan
PSCL5 TIMELY PREFETCHES:          0 LATE PREFETCHES: 0 DROPPED PREFETCHES: 0
PSCL5 PREFETCHES SAME FILL-ORIGIN LEVEL: 0 DIFFERENT FILL-ORIGIN LEVEL: 0

PSCL4 TOTAL     ACCESS:      56922  HIT:      56792  MISS:        130  HIT %:    99.7716  MISS %:   0.228383   MPKI: 0.00065
PSCL4 LOAD TRANSLATION ACCESS:      52032  HIT:      51902  MISS:        130  HIT %:    99.7502  MISS %:   0.249846   MPKI: 0.00065
PSCL4 TRANSLATION FROM L1D PREFETCHER ACCESS:       4890  HIT:       4890  MISS:          0  HIT %:        100  MISS %:          0   MPKI: 0
PSCL4 PREFETCH  REQUESTED:          0  ISSUED:          0  USEFUL:          0  USELESS:          0
PSCL4 USEFUL LOAD PREFETCHES:          0 PREFETCH ISSUED TO LOWER LEVEL:          0  ACCURACY: -nan
PSCL4 TIMELY PREFETCHES:          0 LATE PREFETCHES: 0 DROPPED PREFETCHES: 0
PSCL4 PREFETCHES SAME FILL-ORIGIN LEVEL: 0 DIFFERENT FILL-ORIGIN LEVEL: 0

PSCL3 TOTAL     ACCESS:      54883  HIT:      40705  MISS:      14178  HIT %:    74.1669  MISS %:    25.8331   MPKI: 0.07089
PSCL3 LOAD TRANSLATION ACCESS:      50725  HIT:      36547  MISS:      14178  HIT %:    72.0493  MISS %:    27.9507   MPKI: 0.07089
PSCL3 TRANSLATION FROM L1D PREFETCHER ACCESS:       4158  HIT:       4158  MISS:          0  HIT %:        100  MISS %:          0   MPKI: 0
PSCL3 PREFETCH  REQUESTED:          0  ISSUED:          0  USEFUL:          0  USELESS:          0
PSCL3 USEFUL LOAD PREFETCHES:          0 PREFETCH ISSUED TO LOWER LEVEL:          0  ACCURACY: -nan
PSCL3 TIMELY PREFETCHES:          0 LATE PREFETCHES: 0 DROPPED PREFETCHES: 0
PSCL3 PREFETCHES SAME FILL-ORIGIN LEVEL: 0 DIFFERENT FILL-ORIGIN LEVEL: 0

PSCL2 TOTAL     ACCESS:      56167  HIT:      25450  MISS:      30717  HIT %:    45.3113  MISS %:    54.6887   MPKI: 0.153585
PSCL2 LOAD TRANSLATION ACCESS:      52508  HIT:      21791  MISS:      30717  HIT %:    41.5003  MISS %:    58.4997   MPKI: 0.153585
PSCL2 TRANSLATION FROM L1D PREFETCHER ACCESS:       3659  HIT:       3659  MISS:          0  HIT %:        100  MISS %:          0   MPKI: 0
PSCL2 PREFETCH  REQUESTED:          0  ISSUED:          0  USEFUL:          0  USELESS:          0
PSCL2 USEFUL LOAD PREFETCHES:          0 PREFETCH ISSUED TO LOWER LEVEL:          0  ACCURACY: -nan
PSCL2 TIMELY PREFETCHES:          0 LATE PREFETCHES: 0 DROPPED PREFETCHES: 0
PSCL2 PREFETCHES SAME FILL-ORIGIN LEVEL: 0 DIFFERENT FILL-ORIGIN LEVEL: 0

LLC TOTAL     ACCESS:    1095154  HIT:     898802  MISS:     196352  HIT %:    82.0708  MISS %:    17.9292   MPKI: 0.98176
LLC LOAD      ACCESS:     601583  HIT:     511376  MISS:      90207  HIT %:    85.0051  MISS %:    14.9949   MPKI: 0.451035
LLC RFO       ACCESS:      89859  HIT:      74123  MISS:      15736  HIT %:    82.4881  MISS %:    17.5119   MPKI: 0.07868
LLC PREFETCH  ACCESS:     209258  HIT:     134503  MISS:      74755  HIT %:    64.2762  MISS %:    35.7238   MPKI: 0.373775
AGUS PREFETCH L1 MISS: 0
LLC WRITEBACK ACCESS:     153761  HIT:     152790  MISS:        971  HIT %:    99.3685  MISS %:     0.6315   MPKI: 0.004855
LLC LOAD TRANSLATION ACCESS:      38893  HIT:      24385  MISS:      14508  HIT %:    62.6977  MISS %:    37.3023   MPKI: 0.07254
LLC TRANSLATION FROM L1D PREFETCHER ACCESS:       1800  HIT:       1625  MISS:        175  HIT %:    90.2778  MISS %:    9.72222   MPKI: 0.000875
LLC PREFETCH  REQUESTED:          0  ISSUED:          0  USEFUL:       2345  USELESS:      72861
LLC USEFUL LOAD PREFETCHES:       2345 PREFETCH ISSUED TO LOWER LEVEL:      74755  ACCURACY: 3.13691
LLC TIMELY PREFETCHES:       2345 LATE PREFETCHES: 0 DROPPED PREFETCHES: 0
LLC PREFETCHES SAME FILL-ORIGIN LEVEL: 0 DIFFERENT FILL-ORIGIN LEVEL: 0
LLC AVERAGE MISS LATENCY: 136.026 cycles
LLC RQ	ACCESS:     732136	FORWARD:          0	MERGED:          0	TO_CACHE:     732135
LLC WQ	ACCESS:     153761	FORWARD:          1	MERGED:          0	TO_CACHE:     153761
LLC PQ	ACCESS:     209258	FORWARD:          0	MERGED:          0	TO_CACHE:     209258

LLC Dense regions hint to LLC: 0

RAW hits: 2475563
Loads Generated: 49988386
Loads sent to L1D: 47512823
Stores Generated: 21914186
Stores sent to L1D: 21914197
Major fault: 0 Minor fault: 6990
Allocated PAGES: 6990
CPU 0 L1d next line prefetcher final stats

-63,336
-62,371
-61,361
-60,300
-59,324
-58,336
-57,365
-56,361
-55,329
-54,351
-53,331
-52,325
-51,347
-50,383
-49,346
-48,368
-47,321
-46,356
-45,375
-44,372
-43,412
-42,387
-41,373
-40,428
-39,378
-38,419
-37,451
-36,447
-35,463
-34,514
-33,427
-32,417
-31,477
-30,394
-29,453
-28,506
-27,488
-26,487
-25,469
-24,483
-23,463
-22,492
-21,471
-20,400
-19,500
-18,497
-17,502
-16,589
-15,542
-14,568
-13,556
-12,585
-11,609
-10,621
-9,708
-8,678
-7,722
-6,899
-5,837
-4,895
-3,985
-2,1138
-1,1650
0,1677
1,1927
2,1810
3,1755
4,1632
5,1469
6,1515
7,1227
8,1299
9,1219
10,1124
11,1193
12,1180
13,1073
14,1128
15,1025
16,1027
17,1109
18,1022
19,1078
20,1082
21,982
22,1032
23,1000
24,985
25,993
26,1032
27,986
28,1063
29,998
30,958
31,1022
32,984
33,929
34,965
35,943
36,926
37,894
38,941
39,889
40,949
41,825
42,821
43,838
44,838
45,833
46,861
47,770
48,849
49,751
50,730
51,797
52,819
53,766
54,742
55,774
56,744
57,748
58,738
59,658
60,715
61,684
62,715
63,681

DRAM Statistics
 CHANNEL 0
 RQ ROW_BUFFER_HIT:      76492  ROW_BUFFER_MISS:     118873
 DBUS_CONGESTED:        159
 WQ ROW_BUFFER_HIT:       7304  ROW_BUFFER_MISS:      35692  FULL:          0

 AVG_CONGESTED_CYCLE: 5
 All warmup complete: 2
Channel 0 Bank busy for read cycles: 0
Channel 0 Bank busy for write cycles: 0
Channel 0
Rank 0
0banks busy for read cycles: 318059969
0banks busy for write cycles: 24884
1banks busy for read cycles: 7678098
1banks busy for write cycles: 3535348
2banks busy for read cycles: 3143220
2banks busy for write cycles: 1079282
3banks busy for read cycles: 924193
3banks busy for write cycles: 310682
4banks busy for read cycles: 533120
4banks busy for write cycles: 98346
5banks busy for read cycles: 209558
5banks busy for write cycles: 44891
6banks busy for read cycles: 135537
6banks busy for write cycles: 32109
7banks busy for read cycles: 82673
7banks busy for write cycles: 36156
8banks busy for read cycles: 43412
8banks busy for write cycles: 58380

CPU 0 Branch Prediction Accuracy: 99.8177% MPKI: 0.34573 Average ROB Occupancy at Mispredict: 34.5174
Branch types
NOT_BRANCH: 162062285 81.0311%
BRANCH_DIRECT_JUMP: 3424496 1.71225%
BRANCH_INDIRECT: 12879305 6.43965%
BRANCH_CONDITIONAL: 14259908 7.12995%
BRANCH_DIRECT_CALL: 2777775 1.38889%
BRANCH_INDIRECT_CALL: 909063 0.454531%
BRANCH_RETURN: 3686817 1.84341%
BRANCH_OTHER: 0 0%

DRAM PAGES: 1048576
Allocated PAGES: 6990
