
*** ChampSim Multicore Out-of-Order Simulator ***

Warmup Instructions: 50000000
Simulation Instructions: 200000000
Number of CPUs: 1
LLC sets: 2048
LLC ways: 16
Off-chip DRAM Size: 4096 MB Channels: 1 Width: 64-bit Data Rate: 6400 MT/s
CPU 0 runs traces/spec2k17/srv_41.champsimtrace.xz
.xz
BTB has LRU replacement policy
ITLB has LRU replacement policy
DTLB has LRU replacement policy
STLB has LRU replacement policy
L1I has LRU replacement policy
CPU 0 L2C next line prefetcher
L1D has LRU replacement policy
Initialize SRRIP state for L2C
Initialize DRRIP state for LLC
Heartbeat CPU 0 instructions: 10000000 cycles: 2874474 heartbeat IPC: 3.4789 cumulative IPC: 3.4789 (Simulation time: 0 hr 0 min 33 sec) 
Heartbeat CPU 0 instructions: 20000003 cycles: 5739766 heartbeat IPC: 3.49005 cumulative IPC: 3.48446 (Simulation time: 0 hr 1 min 6 sec) 
Heartbeat CPU 0 instructions: 30000002 cycles: 8624807 heartbeat IPC: 3.46615 cumulative IPC: 3.47834 (Simulation time: 0 hr 1 min 40 sec) 
*** Reached end of trace for Core: 0 Repeating trace: traces/spec2k17/srv_41.champsimtrace.xz
Heartbeat CPU 0 instructions: 40000001 cycles: 11477678 heartbeat IPC: 3.50524 cumulative IPC: 3.48503 (Simulation time: 0 hr 2 min 14 sec) 
Heartbeat CPU 0 instructions: 50000000 cycles: 14347459 heartbeat IPC: 3.48459 cumulative IPC: 3.48494 (Simulation time: 0 hr 2 min 46 sec) 

Warmup complete CPU 0 instructions: 50000004 cycles: 14347460 (Simulation time: 0 hr 2 min 46 sec) 

Heartbeat CPU 0 instructions: 60000002 cycles: 40433493 heartbeat IPC: 0.383347 cumulative IPC: 0.383347 (Simulation time: 0 hr 3 min 38 sec) 
*** Reached end of trace for Core: 0 Repeating trace: traces/spec2k17/srv_41.champsimtrace.xz
Heartbeat CPU 0 instructions: 70000002 cycles: 60934604 heartbeat IPC: 0.487778 cumulative IPC: 0.429303 (Simulation time: 0 hr 4 min 31 sec) 
Heartbeat CPU 0 instructions: 80000002 cycles: 83770849 heartbeat IPC: 0.4379 cumulative IPC: 0.432131 (Simulation time: 0 hr 5 min 22 sec) 
Heartbeat CPU 0 instructions: 90000000 cycles: 109391472 heartbeat IPC: 0.39031 cumulative IPC: 0.420858 (Simulation time: 0 hr 6 min 14 sec) 
*** Reached end of trace for Core: 0 Repeating trace: traces/spec2k17/srv_41.champsimtrace.xz
Heartbeat CPU 0 instructions: 100000001 cycles: 130277349 heartbeat IPC: 0.478792 cumulative IPC: 0.431295 (Simulation time: 0 hr 7 min 5 sec) 
Heartbeat CPU 0 instructions: 110000000 cycles: 153708809 heartbeat IPC: 0.426777 cumulative IPC: 0.430535 (Simulation time: 0 hr 7 min 53 sec) 
Heartbeat CPU 0 instructions: 120000001 cycles: 178894318 heartbeat IPC: 0.397054 cumulative IPC: 0.425411 (Simulation time: 0 hr 8 min 48 sec) 
*** Reached end of trace for Core: 0 Repeating trace: traces/spec2k17/srv_41.champsimtrace.xz
Heartbeat CPU 0 instructions: 130000003 cycles: 200252516 heartbeat IPC: 0.468204 cumulative IPC: 0.430327 (Simulation time: 0 hr 9 min 39 sec) 
Heartbeat CPU 0 instructions: 140000000 cycles: 223210052 heartbeat IPC: 0.435587 cumulative IPC: 0.430905 (Simulation time: 0 hr 10 min 28 sec) 
Heartbeat CPU 0 instructions: 150000003 cycles: 247837319 heartbeat IPC: 0.406054 cumulative IPC: 0.428284 (Simulation time: 0 hr 11 min 21 sec) 
*** Reached end of trace for Core: 0 Repeating trace: traces/spec2k17/srv_41.champsimtrace.xz
Heartbeat CPU 0 instructions: 160000000 cycles: 269373994 heartbeat IPC: 0.464324 cumulative IPC: 0.431328 (Simulation time: 0 hr 12 min 13 sec) 
Heartbeat CPU 0 instructions: 170000000 cycles: 293887690 heartbeat IPC: 0.407935 cumulative IPC: 0.429276 (Simulation time: 0 hr 13 min 8 sec) 
Heartbeat CPU 0 instructions: 180000001 cycles: 316709045 heartbeat IPC: 0.438186 cumulative IPC: 0.429949 (Simulation time: 0 hr 14 min 1 sec) 
*** Reached end of trace for Core: 0 Repeating trace: traces/spec2k17/srv_41.champsimtrace.xz
Heartbeat CPU 0 instructions: 190000000 cycles: 338368896 heartbeat IPC: 0.461684 cumulative IPC: 0.43207 (Simulation time: 0 hr 14 min 52 sec) 
Heartbeat CPU 0 instructions: 200000000 cycles: 363186824 heartbeat IPC: 0.402935 cumulative IPC: 0.429997 (Simulation time: 0 hr 15 min 46 sec) 
Heartbeat CPU 0 instructions: 210000003 cycles: 384883247 heartbeat IPC: 0.460906 cumulative IPC: 0.431807 (Simulation time: 0 hr 16 min 40 sec) 
*** Reached end of trace for Core: 0 Repeating trace: traces/spec2k17/srv_41.champsimtrace.xz
Heartbeat CPU 0 instructions: 220000000 cycles: 408699599 heartbeat IPC: 0.419879 cumulative IPC: 0.431087 (Simulation time: 0 hr 17 min 34 sec) 
Heartbeat CPU 0 instructions: 230000000 cycles: 431678118 heartbeat IPC: 0.435189 cumulative IPC: 0.431313 (Simulation time: 0 hr 18 min 28 sec) 
Heartbeat CPU 0 instructions: 240000000 cycles: 453633701 heartbeat IPC: 0.455465 cumulative IPC: 0.43252 (Simulation time: 0 hr 19 min 20 sec) 
*** Reached end of trace for Core: 0 Repeating trace: traces/spec2k17/srv_41.champsimtrace.xz
Heartbeat CPU 0 instructions: 250000002 cycles: 477900543 heartbeat IPC: 0.412085 cumulative IPC: 0.43145 (Simulation time: 0 hr 20 min 11 sec) 
Finished CPU 0 instructions: 200000002 cycles: 463553084 cumulative IPC: 0.43145 (Simulation time: 0 hr 20 min 11 sec) 

ChampSim completed all CPUs

Region of Interest Statistics

CPU 0 cumulative IPC: 0.43145 instructions: 200000002 cycles: 463553084
ITLB TOTAL     ACCESS:   34228349  HIT:   33342243  MISS:     886106  HIT %:    97.4112  MISS %:    2.58881   MPKI: 4.43053
ITLB LOAD TRANSLATION ACCESS:   34228349  HIT:   33342243  MISS:     886106  HIT %:    97.4112  MISS %:    2.58881   MPKI: 4.43053
ITLB PREFETCH  REQUESTED:          0  ISSUED:          0  USEFUL:          0  USELESS:          0
ITLB USEFUL LOAD PREFETCHES:          0 PREFETCH ISSUED TO LOWER LEVEL:          0  ACCURACY: -nan
ITLB TIMELY PREFETCHES:          0 LATE PREFETCHES: 0 DROPPED PREFETCHES: 0
ITLB PREFETCHES SAME FILL-ORIGIN LEVEL: 0 DIFFERENT FILL-ORIGIN LEVEL: 0
ITLB AVERAGE MISS LATENCY: 10.456 cycles
ITLB RQ	ACCESS:   39108640	FORWARD:          0	MERGED:    4619635	TO_CACHE:   34489005

DTLB TOTAL     ACCESS:   38197111  HIT:   37213945  MISS:     983166  HIT %:    97.4261  MISS %:    2.57393   MPKI: 4.91583
DTLB LOAD TRANSLATION ACCESS:   38197111  HIT:   37213945  MISS:     983166  HIT %:    97.4261  MISS %:    2.57393   MPKI: 4.91583
DTLB PREFETCH  REQUESTED:          0  ISSUED:          0  USEFUL:          0  USELESS:          0
DTLB USEFUL LOAD PREFETCHES:          0 PREFETCH ISSUED TO LOWER LEVEL:          0  ACCURACY: -nan
DTLB TIMELY PREFETCHES:          0 LATE PREFETCHES: 0 DROPPED PREFETCHES: 0
DTLB PREFETCHES SAME FILL-ORIGIN LEVEL: 0 DIFFERENT FILL-ORIGIN LEVEL: 0
DTLB AVERAGE MISS LATENCY: 15.3851 cycles
DTLB RQ	ACCESS:   50573033	FORWARD:          0	MERGED:   12306566	TO_CACHE:   38266467

STLB TOTAL     ACCESS:    3379496  HIT:    3276508  MISS:     102988  HIT %:    96.9526  MISS %:    3.04744   MPKI: 0.51494
STLB LOAD TRANSLATION ACCESS:    1869272  HIT:    1768337  MISS:     100935  HIT %:    94.6003  MISS %:     5.3997   MPKI: 0.504675
STLB TRANSLATION FROM L1D PREFETCHER ACCESS:    1510224  HIT:    1508171  MISS:       2053  HIT %:    99.8641  MISS %:    0.13594   MPKI: 0.010265
STLB PREFETCH  REQUESTED:          0  ISSUED:          0  USEFUL:       1697  USELESS:        355
STLB USEFUL LOAD PREFETCHES:       1697 PREFETCH ISSUED TO LOWER LEVEL:          0  ACCURACY: inf
STLB TIMELY PREFETCHES:       1697 LATE PREFETCHES: 73 DROPPED PREFETCHES: 10432
STLB PREFETCHES SAME FILL-ORIGIN LEVEL: 0 DIFFERENT FILL-ORIGIN LEVEL: 0
STLB AVERAGE MISS LATENCY: 9353.22 cycles
STLB RQ	ACCESS:    3531678	FORWARD:          0	MERGED:     141024	TO_CACHE:    3390654

STLB Hit, L1D data hit: 0
STLB Hit, L2C data hit: 0
STLB Hit, LLC data hit: 0
STLB Hit, LLC data miss: 0
STLB STLB hints to L2: 0
L1D TOTAL     ACCESS:   50999133  HIT:   47582187  MISS:    3416946  HIT %:       93.3  MISS %:    6.70001   MPKI: 17.0847
L1D LOAD      ACCESS:   30441322  HIT:   28860355  MISS:    1580967  HIT %:    94.8065  MISS %:    5.19349   MPKI: 7.90483
L1D RFO       ACCESS:   19122601  HIT:   18456770  MISS:     665831  HIT %:    96.5181  MISS %:    3.48191   MPKI: 3.32915
L1D PREFETCH  ACCESS:    1435210  HIT:     265062  MISS:    1170148  HIT %:    18.4685  MISS %:    81.5315   MPKI: 5.85074
AGUS PREFETCH L1 MISS: 0
L1D PREFETCH  REQUESTED:    3355037  ISSUED:    3355037  USEFUL:     264439  USELESS:     905772
L1D USEFUL LOAD PREFETCHES:     264439 PREFETCH ISSUED TO LOWER LEVEL:    1196193  ACCURACY: 22.1067
L1D TIMELY PREFETCHES:     264439 LATE PREFETCHES: 23271 DROPPED PREFETCHES: 11236
L1D PREFETCHES SAME FILL-ORIGIN LEVEL: 1196193 DIFFERENT FILL-ORIGIN LEVEL: 0
L1D AVERAGE MISS LATENCY: 1.85328e+06 cycles
L1D RQ	ACCESS:   41971681	FORWARD:          0	MERGED:   11147832	TO_CACHE:   30554189
L1D WQ	ACCESS:   20245042	FORWARD:     270431	MERGED:     226198	TO_CACHE:   20018844
L1D PQ	ACCESS:    1692631	FORWARD:          0	MERGED:      29454	TO_CACHE:    1662406

L1D UNIQUE REGIONS ACCESSED: 0
L1D REGIONS CONFLICTS: 0
L1D Cross Page Prefetch Requests: 61753
L1D Same Page Prefetch Requests: 2034693
L1D ROI Sum of L1D PQ occupancy: 22636379
L1D PREFETCHES PUSHED FROM L2C: 0
L1I TOTAL     ACCESS:   38313845  HIT:   33574840  MISS:    4739005  HIT %:    87.6311  MISS %:    12.3689   MPKI: 23.695
L1I LOAD      ACCESS:   38313845  HIT:   33574840  MISS:    4739005  HIT %:    87.6311  MISS %:    12.3689   MPKI: 23.695
L1I PREFETCH  REQUESTED:          0  ISSUED:          0  USEFUL:          0  USELESS:          0
L1I USEFUL LOAD PREFETCHES:          0 PREFETCH ISSUED TO LOWER LEVEL:          0  ACCURACY: -nan
L1I TIMELY PREFETCHES:          0 LATE PREFETCHES: 0 DROPPED PREFETCHES: 0
L1I PREFETCHES SAME FILL-ORIGIN LEVEL: 0 DIFFERENT FILL-ORIGIN LEVEL: 0
L1I AVERAGE MISS LATENCY: 23.9743 cycles
L1I RQ	ACCESS:   60538007	FORWARD:          0	MERGED:   21429367	TO_CACHE:   39108640

BTB TOTAL     ACCESS:   31960684  HIT:   26197910  MISS:    5762774  HIT %:    81.9692  MISS %:    18.0308   MPKI: 28.8139
BTB BRANCH_DIRECT_JUMP	ACCESS:    3125250  HIT:    2730574  MISS:     394676
BTB BRANCH_INDIRECT	ACCESS:   11716382  HIT:    9367715  MISS:    2348667
BTB BRANCH_CONDITIONAL	ACCESS:   10786856  HIT:   10320288  MISS:     466568
BTB BRANCH_DIRECT_CALL	ACCESS:    2710252  HIT:    1976262  MISS:     733990
BTB BRANCH_INDIRECT_CALL	ACCESS:     455858  HIT:     278081  MISS:     177777
BTB BRANCH_RETURN	ACCESS:    3166086  HIT:    1524990  MISS:    1641096
BTB BRANCH_OTHER ACCESS:          0  HIT:          0  MISS:          0

L2C TOTAL     ACCESS:    9634885  HIT:    6358514  MISS:    3276371  HIT %:    65.9947  MISS %:    34.0053   MPKI: 16.3819
L2C LOAD      ACCESS:    6296670  HIT:    4165787  MISS:    2130883  HIT %:    66.1586  MISS %:    33.8414   MPKI: 10.6544
L2C DATA LOAD MPKI: 3.26401
L2C INSTRUCTION LOAD MPKI: 7.3904
L2C RFO       ACCESS:     663026  HIT:     281642  MISS:     381384  HIT %:    42.4783  MISS %:    57.5217   MPKI: 1.90692
L2C PREFETCH  ACCESS:    1196181  HIT:     592601  MISS:     603580  HIT %:    49.5411  MISS %:    50.4589   MPKI: 3.0179
AGUS PREFETCH L1 MISS: 0
L2C DATA PREFETCH MPKI: 3.0179
L2C INSTRUCTION PREFETCH MPKI: 0
L2C WRITEBACK ACCESS:    1300175  HIT:    1233348  MISS:      66827  HIT %:    94.8602  MISS %:    5.13985   MPKI: 0.334135
L2C LOAD TRANSLATION ACCESS:     159165  HIT:      71878  MISS:      87287  HIT %:    45.1594  MISS %:    54.8406   MPKI: 0.436435
L2C TRANSLATION FROM L1D PREFETCHER ACCESS:      19668  HIT:      13258  MISS:       6410  HIT %:     67.409  MISS %:     32.591   MPKI: 0.03205
L2C PREFETCH  REQUESTED:          0  ISSUED:          0  USEFUL:      43294  USELESS:     566669
L2C USEFUL LOAD PREFETCHES:      43294 PREFETCH ISSUED TO LOWER LEVEL:     603580  ACCURACY: 7.17287
L2C TIMELY PREFETCHES:      43294 LATE PREFETCHES: 0 DROPPED PREFETCHES: 0
L2C PREFETCHES SAME FILL-ORIGIN LEVEL: 0 DIFFERENT FILL-ORIGIN LEVEL: 0
L2C AVERAGE MISS LATENCY: 54.6783 cycles
L2C RQ	ACCESS:    7138591	FORWARD:          0	MERGED:          0	TO_CACHE:    7138529
L2C WQ	ACCESS:    1300175	FORWARD:         74	MERGED:          0	TO_CACHE:    1300175
L2C PQ	ACCESS:    1196193	FORWARD:          0	MERGED:          0	TO_CACHE:    1196181

L2C Instructions Evicting Data 736304
L2C Translations Evicting Data 51830
L2C Data Evicting Data 880905
L2C Instructions Evicting Instructions 703194
L2C Translations Evicting Instructions 38890
L2C Data Evicting Instructions 706419
L2C Instructions Evicting Translations 38582
L2C Translations Evicting Translations 2977
L2C Data Evicting Translations 50443
L2C Dense regions hint from L2: 0
PSCL5 TOTAL     ACCESS:     113420  HIT:     113420  MISS:          0  HIT %:        100  MISS %:          0   MPKI: 0
PSCL5 LOAD TRANSLATION ACCESS:     100862  HIT:     100862  MISS:          0  HIT %:        100  MISS %:          0   MPKI: 0
PSCL5 TRANSLATION FROM L1D PREFETCHER ACCESS:      12558  HIT:      12558  MISS:          0  HIT %:        100  MISS %:          0   MPKI: 0
PSCL5 PREFETCH  REQUESTED:          0  ISSUED:          0  USEFUL:          0  USELESS:          0
PSCL5 USEFUL LOAD PREFETCHES:          0 PREFETCH ISSUED TO LOWER LEVEL:          0  ACCURACY: -nan
PSCL5 TIMELY PREFETCHES:          0 LATE PREFETCHES: 0 DROPPED PREFETCHES: 0
PSCL5 PREFETCHES SAME FILL-ORIGIN LEVEL: 0 DIFFERENT FILL-ORIGIN LEVEL: 0

PSCL4 TOTAL     ACCESS:     112686  HIT:     112371  MISS:        315  HIT %:    99.7205  MISS %:   0.279538   MPKI: 0.001575
PSCL4 LOAD TRANSLATION ACCESS:     100271  HIT:      99956  MISS:        315  HIT %:    99.6859  MISS %:   0.314149   MPKI: 0.001575
PSCL4 TRANSLATION FROM L1D PREFETCHER ACCESS:      12415  HIT:      12415  MISS:          0  HIT %:        100  MISS %:          0   MPKI: 0
PSCL4 PREFETCH  REQUESTED:          0  ISSUED:          0  USEFUL:          0  USELESS:          0
PSCL4 USEFUL LOAD PREFETCHES:          0 PREFETCH ISSUED TO LOWER LEVEL:          0  ACCURACY: -nan
PSCL4 TIMELY PREFETCHES:          0 LATE PREFETCHES: 0 DROPPED PREFETCHES: 0
PSCL4 PREFETCHES SAME FILL-ORIGIN LEVEL: 0 DIFFERENT FILL-ORIGIN LEVEL: 0

PSCL3 TOTAL     ACCESS:     103097  HIT:      86705  MISS:      16392  HIT %:    84.1004  MISS %:    15.8996   MPKI: 0.08196
PSCL3 LOAD TRANSLATION ACCESS:      93828  HIT:      77436  MISS:      16392  HIT %:    82.5297  MISS %:    17.4703   MPKI: 0.08196
PSCL3 TRANSLATION FROM L1D PREFETCHER ACCESS:       9269  HIT:       9269  MISS:          0  HIT %:        100  MISS %:          0   MPKI: 0
PSCL3 PREFETCH  REQUESTED:          0  ISSUED:          0  USEFUL:          0  USELESS:          0
PSCL3 USEFUL LOAD PREFETCHES:          0 PREFETCH ISSUED TO LOWER LEVEL:          0  ACCURACY: -nan
PSCL3 TIMELY PREFETCHES:          0 LATE PREFETCHES: 0 DROPPED PREFETCHES: 0
PSCL3 PREFETCHES SAME FILL-ORIGIN LEVEL: 0 DIFFERENT FILL-ORIGIN LEVEL: 0

PSCL2 TOTAL     ACCESS:     108819  HIT:      66694  MISS:      42125  HIT %:    61.2889  MISS %:    38.7111   MPKI: 0.210625
PSCL2 LOAD TRANSLATION ACCESS:     101229  HIT:      59104  MISS:      42125  HIT %:    58.3864  MISS %:    41.6136   MPKI: 0.210625
PSCL2 TRANSLATION FROM L1D PREFETCHER ACCESS:       7590  HIT:       7590  MISS:          0  HIT %:        100  MISS %:          0   MPKI: 0
PSCL2 PREFETCH  REQUESTED:          0  ISSUED:          0  USEFUL:          0  USELESS:          0
PSCL2 USEFUL LOAD PREFETCHES:          0 PREFETCH ISSUED TO LOWER LEVEL:          0  ACCURACY: -nan
PSCL2 TIMELY PREFETCHES:          0 LATE PREFETCHES: 0 DROPPED PREFETCHES: 0
PSCL2 PREFETCHES SAME FILL-ORIGIN LEVEL: 0 DIFFERENT FILL-ORIGIN LEVEL: 0

LLC TOTAL     ACCESS:    3882905  HIT:    3406856  MISS:     476049  HIT %:    87.7399  MISS %:    12.2601   MPKI: 2.38024
LLC LOAD      ACCESS:    2130882  HIT:    1963148  MISS:     167734  HIT %:    92.1284  MISS %:    7.87158   MPKI: 0.83867
LLC RFO       ACCESS:     381380  HIT:     241495  MISS:     139885  HIT %:    63.3214  MISS %:    36.6786   MPKI: 0.699425
LLC PREFETCH  ACCESS:     603580  HIT:     452025  MISS:     151555  HIT %:    74.8907  MISS %:    25.1093   MPKI: 0.757775
AGUS PREFETCH L1 MISS: 0
LLC WRITEBACK ACCESS:     673366  HIT:     670320  MISS:       3046  HIT %:    99.5476  MISS %:   0.452354   MPKI: 0.01523
LLC LOAD TRANSLATION ACCESS:      87287  HIT:      74387  MISS:      12900  HIT %:    85.2212  MISS %:    14.7788   MPKI: 0.0645
LLC TRANSLATION FROM L1D PREFETCHER ACCESS:       6410  HIT:       5481  MISS:        929  HIT %:     85.507  MISS %:     14.493   MPKI: 0.004645
LLC PREFETCH  REQUESTED:          0  ISSUED:          0  USEFUL:      15675  USELESS:     136168
LLC USEFUL LOAD PREFETCHES:      15675 PREFETCH ISSUED TO LOWER LEVEL:     151555  ACCURACY: 10.3428
LLC TIMELY PREFETCHES:      15675 LATE PREFETCHES: 0 DROPPED PREFETCHES: 0
LLC PREFETCHES SAME FILL-ORIGIN LEVEL: 0 DIFFERENT FILL-ORIGIN LEVEL: 0
LLC AVERAGE MISS LATENCY: 174.053 cycles
LLC RQ	ACCESS:    2605964	FORWARD:          0	MERGED:          0	TO_CACHE:    2605959
LLC WQ	ACCESS:     673366	FORWARD:          5	MERGED:          0	TO_CACHE:     673366
LLC PQ	ACCESS:     603580	FORWARD:          0	MERGED:          0	TO_CACHE:     603580

LLC Dense regions hint to LLC: 0

RAW hits: 2052044
Loads Generated: 44023727
Loads sent to L1D: 41971681
Stores Generated: 20245026
Stores sent to L1D: 20245042
Major fault: 0 Minor fault: 5392
Allocated PAGES: 5392
CPU 0 L1d next line prefetcher final stats

-63,476
-62,487
-61,517
-60,448
-59,406
-58,448
-57,498
-56,367
-55,484
-54,491
-53,515
-52,609
-51,461
-50,532
-49,512
-48,495
-47,466
-46,518
-45,481
-44,540
-43,644
-42,575
-41,558
-40,565
-39,573
-38,574
-37,509
-36,617
-35,587
-34,578
-33,565
-32,638
-31,624
-30,607
-29,649
-28,615
-27,613
-26,695
-25,624
-24,707
-23,686
-22,683
-21,725
-20,696
-19,761
-18,756
-17,718
-16,763
-15,875
-14,789
-13,857
-12,973
-11,992
-10,982
-9,1035
-8,1075
-7,1006
-6,1294
-5,1124
-4,1339
-3,1433
-2,1738
-1,2390
0,2339
1,2642
2,2446
3,2314
4,2300
5,1780
6,1967
7,1393
8,1457
9,1459
10,1477
11,1287
12,1419
13,1166
14,1241
15,1271
16,1343
17,1251
18,1185
19,1170
20,1139
21,1032
22,1048
23,913
24,1067
25,1144
26,1092
27,954
28,1095
29,982
30,1016
31,965
32,912
33,871
34,974
35,942
36,981
37,911
38,966
39,821
40,857
41,772
42,809
43,745
44,812
45,741
46,832
47,631
48,751
49,700
50,718
51,694
52,872
53,691
54,764
55,732
56,705
57,758
58,709
59,635
60,685
61,701
62,687
63,715

DRAM Statistics
 CHANNEL 0
 RQ ROW_BUFFER_HIT:     111801  ROW_BUFFER_MISS:     361194
 DBUS_CONGESTED:        234
 WQ ROW_BUFFER_HIT:      32437  ROW_BUFFER_MISS:     223637  FULL:          0

 AVG_CONGESTED_CYCLE: 4
 All warmup complete: 2
Channel 0 Bank busy for read cycles: 0
Channel 0 Bank busy for write cycles: 0
Channel 0
Rank 0
0banks busy for read cycles: 403969711
0banks busy for write cycles: 106634
1banks busy for read cycles: 21800332
1banks busy for write cycles: 13334391
2banks busy for read cycles: 10342632
2banks busy for write cycles: 5306223
3banks busy for read cycles: 1937493
3banks busy for write cycles: 2047601
4banks busy for read cycles: 763084
4banks busy for write cycles: 931495
5banks busy for read cycles: 198968
5banks busy for write cycles: 446278
6banks busy for read cycles: 148238
6banks busy for write cycles: 240271
7banks busy for read cycles: 189344
7banks busy for write cycles: 201819
8banks busy for read cycles: 670004
8banks busy for write cycles: 918567

CPU 0 Branch Prediction Accuracy: 99.5917% MPKI: 0.749205 Average ROB Occupancy at Mispredict: 28.9288
Branch types
NOT_BRANCH: 163297289 81.6486%
BRANCH_DIRECT_JUMP: 3125250 1.56262%
BRANCH_INDIRECT: 11716382 5.85819%
BRANCH_CONDITIONAL: 15528542 7.76427%
BRANCH_DIRECT_CALL: 2710252 1.35513%
BRANCH_INDIRECT_CALL: 455858 0.227929%
BRANCH_RETURN: 3166086 1.58304%
BRANCH_OTHER: 0 0%

DRAM PAGES: 1048576
Allocated PAGES: 5392
