
*** ChampSim Multicore Out-of-Order Simulator ***

Warmup Instructions: 50000000
Simulation Instructions: 200000000
Number of CPUs: 1
LLC sets: 2048
LLC ways: 16
Off-chip DRAM Size: 4096 MB Channels: 1 Width: 64-bit Data Rate: 6400 MT/s
CPU 0 runs traces/spec2k17/srv_31.champsimtrace.xz
.xz
BTB has LRU replacement policy
ITLB has LRU replacement policy
DTLB has LRU replacement policy
STLB has LRU replacement policy
L1I has LRU replacement policy
CPU 0 L2C next line prefetcher
L1D has LRU replacement policy
Initialize SRRIP state for L2C
Initialize DRRIP state for LLC
Heartbeat CPU 0 instructions: 10000000 cycles: 2807442 heartbeat IPC: 3.56196 cumulative IPC: 3.56196 (Simulation time: 0 hr 0 min 42 sec) 
Heartbeat CPU 0 instructions: 20000002 cycles: 5613193 heartbeat IPC: 3.56411 cumulative IPC: 3.56303 (Simulation time: 0 hr 1 min 21 sec) 
Heartbeat CPU 0 instructions: 30000002 cycles: 8419855 heartbeat IPC: 3.56295 cumulative IPC: 3.56301 (Simulation time: 0 hr 2 min 1 sec) 
*** Reached end of trace for Core: 0 Repeating trace: traces/spec2k17/srv_31.champsimtrace.xz
Heartbeat CPU 0 instructions: 40000000 cycles: 11224235 heartbeat IPC: 3.56585 cumulative IPC: 3.56372 (Simulation time: 0 hr 2 min 39 sec) 
Heartbeat CPU 0 instructions: 50000003 cycles: 14028800 heartbeat IPC: 3.56562 cumulative IPC: 3.5641 (Simulation time: 0 hr 3 min 17 sec) 

Warmup complete CPU 0 instructions: 50000003 cycles: 14028800 (Simulation time: 0 hr 3 min 17 sec) 

Heartbeat CPU 0 instructions: 60000001 cycles: 28044253 heartbeat IPC: 0.713498 cumulative IPC: 0.713498 (Simulation time: 0 hr 4 min 6 sec) 
*** Reached end of trace for Core: 0 Repeating trace: traces/spec2k17/srv_31.champsimtrace.xz
Heartbeat CPU 0 instructions: 70000000 cycles: 42047352 heartbeat IPC: 0.714128 cumulative IPC: 0.713813 (Simulation time: 0 hr 4 min 56 sec) 
Heartbeat CPU 0 instructions: 80000000 cycles: 55790348 heartbeat IPC: 0.727643 cumulative IPC: 0.718364 (Simulation time: 0 hr 5 min 44 sec) 
Heartbeat CPU 0 instructions: 90000001 cycles: 69675921 heartbeat IPC: 0.720172 cumulative IPC: 0.718815 (Simulation time: 0 hr 6 min 33 sec) 
*** Reached end of trace for Core: 0 Repeating trace: traces/spec2k17/srv_31.champsimtrace.xz
Heartbeat CPU 0 instructions: 100000000 cycles: 83497617 heartbeat IPC: 0.7235 cumulative IPC: 0.719747 (Simulation time: 0 hr 7 min 25 sec) 
Heartbeat CPU 0 instructions: 110000000 cycles: 97246604 heartbeat IPC: 0.727326 cumulative IPC: 0.721 (Simulation time: 0 hr 8 min 15 sec) 
Heartbeat CPU 0 instructions: 120000001 cycles: 111361295 heartbeat IPC: 0.708482 cumulative IPC: 0.719184 (Simulation time: 0 hr 9 min 5 sec) 
*** Reached end of trace for Core: 0 Repeating trace: traces/spec2k17/srv_31.champsimtrace.xz
Heartbeat CPU 0 instructions: 130000000 cycles: 125159852 heartbeat IPC: 0.724713 cumulative IPC: 0.719871 (Simulation time: 0 hr 9 min 53 sec) 
Heartbeat CPU 0 instructions: 140000000 cycles: 138846570 heartbeat IPC: 0.730635 cumulative IPC: 0.721051 (Simulation time: 0 hr 10 min 42 sec) 
Heartbeat CPU 0 instructions: 150000002 cycles: 152960820 heartbeat IPC: 0.708504 cumulative IPC: 0.719776 (Simulation time: 0 hr 11 min 30 sec) 
*** Reached end of trace for Core: 0 Repeating trace: traces/spec2k17/srv_31.champsimtrace.xz
Heartbeat CPU 0 instructions: 160000002 cycles: 166846262 heartbeat IPC: 0.720179 cumulative IPC: 0.719813 (Simulation time: 0 hr 12 min 19 sec) 
Heartbeat CPU 0 instructions: 170000002 cycles: 180501381 heartbeat IPC: 0.732326 cumulative IPC: 0.720839 (Simulation time: 0 hr 13 min 7 sec) 
Heartbeat CPU 0 instructions: 180000002 cycles: 194375121 heartbeat IPC: 0.720786 cumulative IPC: 0.720835 (Simulation time: 0 hr 13 min 55 sec) 
Heartbeat CPU 0 instructions: 190000001 cycles: 208229373 heartbeat IPC: 0.7218 cumulative IPC: 0.720904 (Simulation time: 0 hr 14 min 43 sec) 
*** Reached end of trace for Core: 0 Repeating trace: traces/spec2k17/srv_31.champsimtrace.xz
Heartbeat CPU 0 instructions: 200000003 cycles: 222115638 heartbeat IPC: 0.720136 cumulative IPC: 0.720853 (Simulation time: 0 hr 15 min 35 sec) 
Heartbeat CPU 0 instructions: 210000003 cycles: 235971850 heartbeat IPC: 0.721698 cumulative IPC: 0.720906 (Simulation time: 0 hr 16 min 23 sec) 
Heartbeat CPU 0 instructions: 220000000 cycles: 249789717 heartbeat IPC: 0.7237 cumulative IPC: 0.721069 (Simulation time: 0 hr 17 min 14 sec) 
*** Reached end of trace for Core: 0 Repeating trace: traces/spec2k17/srv_31.champsimtrace.xz
Heartbeat CPU 0 instructions: 230000003 cycles: 263725577 heartbeat IPC: 0.717573 cumulative IPC: 0.720874 (Simulation time: 0 hr 18 min 6 sec) 
Heartbeat CPU 0 instructions: 240000001 cycles: 277516992 heartbeat IPC: 0.725089 cumulative IPC: 0.721095 (Simulation time: 0 hr 18 min 54 sec) 
Heartbeat CPU 0 instructions: 250000003 cycles: 291412085 heartbeat IPC: 0.719679 cumulative IPC: 0.721024 (Simulation time: 0 hr 19 min 43 sec) 
Finished CPU 0 instructions: 200000000 cycles: 277383285 cumulative IPC: 0.721024 (Simulation time: 0 hr 19 min 43 sec) 

ChampSim completed all CPUs

Region of Interest Statistics

CPU 0 cumulative IPC: 0.721024 instructions: 200000000 cycles: 277383285
ITLB TOTAL     ACCESS:   32447676  HIT:   32340972  MISS:     106704  HIT %:    99.6712  MISS %:   0.328849   MPKI: 0.53352
ITLB LOAD TRANSLATION ACCESS:   32447676  HIT:   32340972  MISS:     106704  HIT %:    99.6712  MISS %:   0.328849   MPKI: 0.53352
ITLB PREFETCH  REQUESTED:          0  ISSUED:          0  USEFUL:          0  USELESS:          0
ITLB USEFUL LOAD PREFETCHES:          0 PREFETCH ISSUED TO LOWER LEVEL:          0  ACCURACY: -nan
ITLB TIMELY PREFETCHES:          0 LATE PREFETCHES: 0 DROPPED PREFETCHES: 0
ITLB PREFETCHES SAME FILL-ORIGIN LEVEL: 0 DIFFERENT FILL-ORIGIN LEVEL: 0
ITLB AVERAGE MISS LATENCY: 10.6671 cycles
ITLB RQ	ACCESS:   38246215	FORWARD:          0	MERGED:    5763746	TO_CACHE:   32482469

DTLB TOTAL     ACCESS:   40729876  HIT:   38920942  MISS:    1808934  HIT %:    95.5587  MISS %:     4.4413   MPKI: 9.04467
DTLB LOAD TRANSLATION ACCESS:   40729876  HIT:   38920942  MISS:    1808934  HIT %:    95.5587  MISS %:     4.4413   MPKI: 9.04467
DTLB PREFETCH  REQUESTED:          0  ISSUED:          0  USEFUL:          0  USELESS:          0
DTLB USEFUL LOAD PREFETCHES:          0 PREFETCH ISSUED TO LOWER LEVEL:          0  ACCURACY: -nan
DTLB TIMELY PREFETCHES:          0 LATE PREFETCHES: 0 DROPPED PREFETCHES: 0
DTLB PREFETCHES SAME FILL-ORIGIN LEVEL: 0 DIFFERENT FILL-ORIGIN LEVEL: 0
DTLB AVERAGE MISS LATENCY: 10.7301 cycles
DTLB RQ	ACCESS:   54726969	FORWARD:          0	MERGED:   13797319	TO_CACHE:   40929650

STLB TOTAL     ACCESS:    2304923  HIT:    2217506  MISS:      87417  HIT %:    96.2074  MISS %:    3.79262   MPKI: 0.437085
STLB LOAD TRANSLATION ACCESS:    1915638  HIT:    1829544  MISS:      86094  HIT %:    95.5057  MISS %:    4.49427   MPKI: 0.43047
STLB TRANSLATION FROM L1D PREFETCHER ACCESS:     389285  HIT:     387962  MISS:       1323  HIT %:    99.6601  MISS %:   0.339854   MPKI: 0.006615
STLB PREFETCH  REQUESTED:          0  ISSUED:          0  USEFUL:        858  USELESS:        461
STLB USEFUL LOAD PREFETCHES:        858 PREFETCH ISSUED TO LOWER LEVEL:          0  ACCURACY: inf
STLB TIMELY PREFETCHES:        858 LATE PREFETCHES: 147 DROPPED PREFETCHES: 541
STLB PREFETCHES SAME FILL-ORIGIN LEVEL: 0 DIFFERENT FILL-ORIGIN LEVEL: 0
STLB AVERAGE MISS LATENCY: 13151.6 cycles
STLB RQ	ACCESS:    2357841	FORWARD:          0	MERGED:      52170	TO_CACHE:    2305671

STLB Hit, L1D data hit: 0
STLB Hit, L2C data hit: 0
STLB Hit, LLC data hit: 0
STLB Hit, LLC data miss: 0
STLB STLB hints to L2: 0
L1D TOTAL     ACCESS:   54339691  HIT:   53706172  MISS:     633519  HIT %:    98.8342  MISS %:    1.16585   MPKI: 3.16759
L1D LOAD      ACCESS:   30695771  HIT:   30347463  MISS:     348308  HIT %:    98.8653  MISS %:    1.13471   MPKI: 1.74154
L1D RFO       ACCESS:   23430958  HIT:   23311039  MISS:     119919  HIT %:    99.4882  MISS %:   0.511797   MPKI: 0.599595
L1D PREFETCH  ACCESS:     212962  HIT:      47670  MISS:     165292  HIT %:    22.3843  MISS %:    77.6157   MPKI: 0.82646
AGUS PREFETCH L1 MISS: 0
L1D PREFETCH  REQUESTED:     911747  ISSUED:     911747  USEFUL:      26888  USELESS:     138356
L1D USEFUL LOAD PREFETCHES:      26888 PREFETCH ISSUED TO LOWER LEVEL:     190253  ACCURACY: 14.1328
L1D TIMELY PREFETCHES:      26888 LATE PREFETCHES: 24634 DROPPED PREFETCHES: 580
L1D PREFETCHES SAME FILL-ORIGIN LEVEL: 190253 DIFFERENT FILL-ORIGIN LEVEL: 0
L1D AVERAGE MISS LATENCY: 5.74674e+06 cycles
L1D RQ	ACCESS:   49491217	FORWARD:          0	MERGED:   18551805	TO_CACHE:   30818713
L1D WQ	ACCESS:   24164282	FORWARD:     120756	MERGED:     256026	TO_CACHE:   23908256
L1D PQ	ACCESS:     469544	FORWARD:          0	MERGED:      27284	TO_CACHE:     442203

L1D UNIQUE REGIONS ACCESSED: 0
L1D REGIONS CONFLICTS: 0
L1D Cross Page Prefetch Requests: 7557
L1D Same Page Prefetch Requests: 550762
L1D ROI Sum of L1D PQ occupancy: 5925163
L1D PREFETCHES PUSHED FROM L2C: 0
L1I TOTAL     ACCESS:   38053694  HIT:   37415323  MISS:     638371  HIT %:    98.3224  MISS %:    1.67755   MPKI: 3.19185
L1I LOAD      ACCESS:   38053694  HIT:   37415323  MISS:     638371  HIT %:    98.3224  MISS %:    1.67755   MPKI: 3.19185
L1I PREFETCH  REQUESTED:          0  ISSUED:          0  USEFUL:          0  USELESS:          0
L1I USEFUL LOAD PREFETCHES:          0 PREFETCH ISSUED TO LOWER LEVEL:          0  ACCURACY: -nan
L1I TIMELY PREFETCHES:          0 LATE PREFETCHES: 0 DROPPED PREFETCHES: 0
L1I PREFETCHES SAME FILL-ORIGIN LEVEL: 0 DIFFERENT FILL-ORIGIN LEVEL: 0
L1I AVERAGE MISS LATENCY: 17.2413 cycles
L1I RQ	ACCESS:   60442789	FORWARD:          0	MERGED:   22196574	TO_CACHE:   38246215

BTB TOTAL     ACCESS:   29625893  HIT:   27968825  MISS:    1657068  HIT %:    94.4067  MISS %:    5.59331   MPKI: 8.28534
BTB BRANCH_DIRECT_JUMP	ACCESS:    2289443  HIT:    2287950  MISS:       1493
BTB BRANCH_INDIRECT	ACCESS:   12552908  HIT:   12006835  MISS:     546073
BTB BRANCH_CONDITIONAL	ACCESS:    7216617  HIT:    7214548  MISS:       2069
BTB BRANCH_DIRECT_CALL	ACCESS:    3333261  HIT:    3329718  MISS:       3543
BTB BRANCH_INDIRECT_CALL	ACCESS:     450198  HIT:     257229  MISS:     192969
BTB BRANCH_RETURN	ACCESS:    3783466  HIT:    2872545  MISS:     910921
BTB BRANCH_OTHER ACCESS:          0  HIT:          0  MISS:          0

L2C TOTAL     ACCESS:    1565120  HIT:     951966  MISS:     613154  HIT %:    60.8238  MISS %:    39.1762   MPKI: 3.06577
L2C LOAD      ACCESS:     961924  HIT:     652303  MISS:     309621  HIT %:    67.8123  MISS %:    32.1877   MPKI: 1.54811
L2C DATA LOAD MPKI: 1.32251
L2C INSTRUCTION LOAD MPKI: 0.225595
L2C RFO       ACCESS:     119583  HIT:       9841  MISS:     109742  HIT %:    8.22943  MISS %:    91.7706   MPKI: 0.54871
L2C PREFETCH  ACCESS:     190253  HIT:      29359  MISS:     160894  HIT %:    15.4316  MISS %:    84.5684   MPKI: 0.80447
AGUS PREFETCH L1 MISS: 0
L2C DATA PREFETCH MPKI: 0.80447
L2C INSTRUCTION PREFETCH MPKI: 0
L2C WRITEBACK ACCESS:     168287  HIT:     163076  MISS:       5211  HIT %:    96.9035  MISS %:     3.0965   MPKI: 0.026055
L2C LOAD TRANSLATION ACCESS:     122796  HIT:      95326  MISS:      27470  HIT %:    77.6296  MISS %:    22.3704   MPKI: 0.13735
L2C TRANSLATION FROM L1D PREFETCHER ACCESS:       2277  HIT:       2061  MISS:        216  HIT %:    90.5138  MISS %:    9.48617   MPKI: 0.00108
L2C PREFETCH  REQUESTED:          0  ISSUED:          0  USEFUL:       4005  USELESS:     156782
L2C USEFUL LOAD PREFETCHES:       4005 PREFETCH ISSUED TO LOWER LEVEL:     160894  ACCURACY: 2.48922
L2C TIMELY PREFETCHES:       4005 LATE PREFETCHES: 0 DROPPED PREFETCHES: 0
L2C PREFETCHES SAME FILL-ORIGIN LEVEL: 0 DIFFERENT FILL-ORIGIN LEVEL: 0
L2C AVERAGE MISS LATENCY: 126.476 cycles
L2C RQ	ACCESS:    1206710	FORWARD:          0	MERGED:          0	TO_CACHE:    1206580
L2C WQ	ACCESS:     168287	FORWARD:        130	MERGED:          0	TO_CACHE:     168287
L2C PQ	ACCESS:     190253	FORWARD:          0	MERGED:          0	TO_CACHE:     190253

L2C Instructions Evicting Data 40922
L2C Translations Evicting Data 24191
L2C Data Evicting Data 470480
L2C Instructions Evicting Instructions 2352
L2C Translations Evicting Instructions 2117
L2C Data Evicting Instructions 40626
L2C Instructions Evicting Translations 1845
L2C Translations Evicting Translations 1378
L2C Data Evicting Translations 24032
L2C Dense regions hint from L2: 0
PSCL5 TOTAL     ACCESS:      87958  HIT:      87958  MISS:          0  HIT %:        100  MISS %:          0   MPKI: 0
PSCL5 LOAD TRANSLATION ACCESS:      85947  HIT:      85947  MISS:          0  HIT %:        100  MISS %:          0   MPKI: 0
PSCL5 TRANSLATION FROM L1D PREFETCHER ACCESS:       2011  HIT:       2011  MISS:          0  HIT %:        100  MISS %:          0   MPKI: 0
PSCL5 PREFETCH  REQUESTED:          0  ISSUED:          0  USEFUL:          0  USELESS:          0
PSCL5 USEFUL LOAD PREFETCHES:          0 PREFETCH ISSUED TO LOWER LEVEL:          0  ACCURACY: -nan
PSCL5 TIMELY PREFETCHES:          0 LATE PREFETCHES: 0 DROPPED PREFETCHES: 0
PSCL5 PREFETCHES SAME FILL-ORIGIN LEVEL: 0 DIFFERENT FILL-ORIGIN LEVEL: 0

PSCL4 TOTAL     ACCESS:      86219  HIT:      86073  MISS:        146  HIT %:    99.8307  MISS %:   0.169336   MPKI: 0.00073
PSCL4 LOAD TRANSLATION ACCESS:      84313  HIT:      84167  MISS:        146  HIT %:    99.8268  MISS %:   0.173164   MPKI: 0.00073
PSCL4 TRANSLATION FROM L1D PREFETCHER ACCESS:       1906  HIT:       1906  MISS:          0  HIT %:        100  MISS %:          0   MPKI: 0
PSCL4 PREFETCH  REQUESTED:          0  ISSUED:          0  USEFUL:          0  USELESS:          0
PSCL4 USEFUL LOAD PREFETCHES:          0 PREFETCH ISSUED TO LOWER LEVEL:          0  ACCURACY: -nan
PSCL4 TIMELY PREFETCHES:          0 LATE PREFETCHES: 0 DROPPED PREFETCHES: 0
PSCL4 PREFETCHES SAME FILL-ORIGIN LEVEL: 0 DIFFERENT FILL-ORIGIN LEVEL: 0

PSCL3 TOTAL     ACCESS:      87612  HIT:      87066  MISS:        546  HIT %:    99.3768  MISS %:   0.623202   MPKI: 0.00273
PSCL3 LOAD TRANSLATION ACCESS:      85628  HIT:      85082  MISS:        546  HIT %:    99.3624  MISS %:   0.637642   MPKI: 0.00273
PSCL3 TRANSLATION FROM L1D PREFETCHER ACCESS:       1984  HIT:       1984  MISS:          0  HIT %:        100  MISS %:          0   MPKI: 0
PSCL3 PREFETCH  REQUESTED:          0  ISSUED:          0  USEFUL:          0  USELESS:          0
PSCL3 USEFUL LOAD PREFETCHES:          0 PREFETCH ISSUED TO LOWER LEVEL:          0  ACCURACY: -nan
PSCL3 TIMELY PREFETCHES:          0 LATE PREFETCHES: 0 DROPPED PREFETCHES: 0
PSCL3 PREFETCHES SAME FILL-ORIGIN LEVEL: 0 DIFFERENT FILL-ORIGIN LEVEL: 0

PSCL2 TOTAL     ACCESS:      87843  HIT:      51554  MISS:      36289  HIT %:    58.6888  MISS %:    41.3112   MPKI: 0.181445
PSCL2 LOAD TRANSLATION ACCESS:      86072  HIT:      49783  MISS:      36289  HIT %:    57.8388  MISS %:    42.1612   MPKI: 0.181445
PSCL2 TRANSLATION FROM L1D PREFETCHER ACCESS:       1771  HIT:       1771  MISS:          0  HIT %:        100  MISS %:          0   MPKI: 0
PSCL2 PREFETCH  REQUESTED:          0  ISSUED:          0  USEFUL:          0  USELESS:          0
PSCL2 USEFUL LOAD PREFETCHES:          0 PREFETCH ISSUED TO LOWER LEVEL:          0  ACCURACY: -nan
PSCL2 TIMELY PREFETCHES:          0 LATE PREFETCHES: 0 DROPPED PREFETCHES: 0
PSCL2 PREFETCHES SAME FILL-ORIGIN LEVEL: 0 DIFFERENT FILL-ORIGIN LEVEL: 0

LLC TOTAL     ACCESS:     757362  HIT:     379822  MISS:     377540  HIT %:    50.1507  MISS %:    49.8493   MPKI: 1.8877
LLC LOAD      ACCESS:     309617  HIT:     114334  MISS:     195283  HIT %:    36.9276  MISS %:    63.0724   MPKI: 0.976415
LLC RFO       ACCESS:     109742  HIT:      50957  MISS:      58785  HIT %:    46.4335  MISS %:    53.5665   MPKI: 0.293925
LLC PREFETCH  ACCESS:     160891  HIT:      42441  MISS:     118450  HIT %:    26.3787  MISS %:    73.6213   MPKI: 0.59225
AGUS PREFETCH L1 MISS: 0
LLC WRITEBACK ACCESS:     149426  HIT:     146936  MISS:       2490  HIT %:    98.3336  MISS %:    1.66638   MPKI: 0.01245
LLC LOAD TRANSLATION ACCESS:      27470  HIT:      25005  MISS:       2465  HIT %:    91.0266  MISS %:    8.97343   MPKI: 0.012325
LLC TRANSLATION FROM L1D PREFETCHER ACCESS:        216  HIT:        149  MISS:         67  HIT %:    68.9815  MISS %:    31.0185   MPKI: 0.000335
LLC PREFETCH  REQUESTED:          0  ISSUED:          0  USEFUL:       2974  USELESS:     119187
LLC USEFUL LOAD PREFETCHES:       2974 PREFETCH ISSUED TO LOWER LEVEL:     118450  ACCURACY: 2.51076
LLC TIMELY PREFETCHES:       2974 LATE PREFETCHES: 0 DROPPED PREFETCHES: 0
LLC PREFETCHES SAME FILL-ORIGIN LEVEL: 0 DIFFERENT FILL-ORIGIN LEVEL: 0
LLC AVERAGE MISS LATENCY: 157.095 cycles
LLC RQ	ACCESS:     447049	FORWARD:          0	MERGED:          0	TO_CACHE:     447045
LLC WQ	ACCESS:     149426	FORWARD:          7	MERGED:          0	TO_CACHE:     149426
LLC PQ	ACCESS:     160894	FORWARD:          0	MERGED:          0	TO_CACHE:     160891

LLC Dense regions hint to LLC: 0

RAW hits: 2380155
Loads Generated: 51871374
Loads sent to L1D: 49491217
Stores Generated: 24164278
Stores sent to L1D: 24164282
Major fault: 0 Minor fault: 6162
Allocated PAGES: 6162
CPU 0 L1d next line prefetcher final stats

-63,32
-62,30
-61,39
-60,77
-59,37
-58,52
-57,43
-56,58
-55,49
-54,47
-53,42
-52,37
-51,50
-50,69
-49,47
-48,53
-47,42
-46,47
-45,44
-44,57
-43,56
-42,43
-41,55
-40,60
-39,63
-38,66
-37,62
-36,66
-35,74
-34,67
-33,53
-32,90
-31,62
-30,94
-29,61
-28,89
-27,73
-26,58
-25,57
-24,58
-23,80
-22,63
-21,79
-20,98
-19,88
-18,93
-17,95
-16,105
-15,98
-14,106
-13,75
-12,75
-11,96
-10,113
-9,85
-8,100
-7,106
-6,94
-5,119
-4,182
-3,186
-2,207
-1,912
0,1122
1,1214
2,1130
3,1080
4,1107
5,1018
6,999
7,937
8,982
9,916
10,851
11,875
12,903
13,826
14,824
15,821
16,886
17,849
18,796
19,828
20,827
21,797
22,760
23,758
24,743
25,740
26,696
27,648
28,683
29,630
30,630
31,616
32,648
33,580
34,577
35,576
36,576
37,552
38,545
39,531
40,564
41,535
42,517
43,519
44,540
45,504
46,499
47,477
48,510
49,475
50,473
51,477
52,473
53,456
54,469
55,453
56,476
57,424
58,437
59,431
60,491
61,413
62,411
63,412

DRAM Statistics
 CHANNEL 0
 RQ ROW_BUFFER_HIT:      76139  ROW_BUFFER_MISS:     298880
 DBUS_CONGESTED:        283
 WQ ROW_BUFFER_HIT:      12153  ROW_BUFFER_MISS:      65029  FULL:          0

 AVG_CONGESTED_CYCLE: 5
 All warmup complete: 2
Channel 0 Bank busy for read cycles: 0
Channel 0 Bank busy for write cycles: 0
Channel 0
Rank 0
0banks busy for read cycles: 240470770
0banks busy for write cycles: 39714
1banks busy for read cycles: 14264295
1banks busy for write cycles: 6332623
2banks busy for read cycles: 11059485
2banks busy for write cycles: 1541734
3banks busy for read cycles: 847458
3banks busy for write cycles: 391359
4banks busy for read cycles: 515444
4banks busy for write cycles: 166747
5banks busy for read cycles: 346495
5banks busy for write cycles: 115613
6banks busy for read cycles: 294509
6banks busy for write cycles: 110869
7banks busy for read cycles: 262771
7banks busy for write cycles: 123615
8banks busy for read cycles: 290365
8banks busy for write cycles: 209420

CPU 0 Branch Prediction Accuracy: 99.7859% MPKI: 0.39104 Average ROB Occupancy at Mispredict: 19.6727
Branch types
NOT_BRANCH: 163463153 81.7316%
BRANCH_DIRECT_JUMP: 2289443 1.14472%
BRANCH_INDIRECT: 12552908 6.27645%
BRANCH_CONDITIONAL: 14127333 7.06367%
BRANCH_DIRECT_CALL: 3333261 1.66663%
BRANCH_INDIRECT_CALL: 450198 0.225099%
BRANCH_RETURN: 3783466 1.89173%
BRANCH_OTHER: 0 0%

DRAM PAGES: 1048576
Allocated PAGES: 6162
