
*** ChampSim Multicore Out-of-Order Simulator ***

Warmup Instructions: 50000000
Simulation Instructions: 200000000
Number of CPUs: 1
LLC sets: 2048
LLC ways: 16
Off-chip DRAM Size: 4096 MB Channels: 1 Width: 64-bit Data Rate: 6400 MT/s
CPU 0 runs traces/spec2k17/srv_61.champsimtrace.xz
.xz
BTB has LRU replacement policy
ITLB has LRU replacement policy
DTLB has LRU replacement policy
STLB has LRU replacement policy
L1I has LRU replacement policy
CPU 0 L2C next line prefetcher
L1D has LRU replacement policy
Initialize SRRIP state for L2C
Initialize DRRIP state for LLC
Heartbeat CPU 0 instructions: 10000002 cycles: 2787694 heartbeat IPC: 3.58719 cumulative IPC: 3.58719 (Simulation time: 0 hr 0 min 34 sec) 
Heartbeat CPU 0 instructions: 20000002 cycles: 5570653 heartbeat IPC: 3.5933 cumulative IPC: 3.59024 (Simulation time: 0 hr 1 min 9 sec) 
Heartbeat CPU 0 instructions: 30000000 cycles: 8355740 heartbeat IPC: 3.59055 cumulative IPC: 3.59035 (Simulation time: 0 hr 1 min 43 sec) 
*** Reached end of trace for Core: 0 Repeating trace: traces/spec2k17/srv_61.champsimtrace.xz
Heartbeat CPU 0 instructions: 40000000 cycles: 11139962 heartbeat IPC: 3.59167 cumulative IPC: 3.59068 (Simulation time: 0 hr 2 min 17 sec) 
Heartbeat CPU 0 instructions: 50000001 cycles: 13922244 heartbeat IPC: 3.59417 cumulative IPC: 3.59138 (Simulation time: 0 hr 2 min 52 sec) 

Warmup complete CPU 0 instructions: 50000001 cycles: 13922244 (Simulation time: 0 hr 2 min 52 sec) 

Heartbeat CPU 0 instructions: 60000002 cycles: 38492671 heartbeat IPC: 0.406993 cumulative IPC: 0.406993 (Simulation time: 0 hr 3 min 46 sec) 
*** Reached end of trace for Core: 0 Repeating trace: traces/spec2k17/srv_61.champsimtrace.xz
Heartbeat CPU 0 instructions: 70000001 cycles: 62596461 heartbeat IPC: 0.414872 cumulative IPC: 0.410895 (Simulation time: 0 hr 4 min 40 sec) 
Heartbeat CPU 0 instructions: 80000003 cycles: 86426583 heartbeat IPC: 0.419637 cumulative IPC: 0.413768 (Simulation time: 0 hr 5 min 34 sec) 
Heartbeat CPU 0 instructions: 90000003 cycles: 110922909 heartbeat IPC: 0.408224 cumulative IPC: 0.412368 (Simulation time: 0 hr 6 min 31 sec) 
*** Reached end of trace for Core: 0 Repeating trace: traces/spec2k17/srv_61.champsimtrace.xz
Heartbeat CPU 0 instructions: 100000001 cycles: 134911413 heartbeat IPC: 0.416866 cumulative IPC: 0.41326 (Simulation time: 0 hr 7 min 27 sec) 
Heartbeat CPU 0 instructions: 110000000 cycles: 158915904 heartbeat IPC: 0.416589 cumulative IPC: 0.413811 (Simulation time: 0 hr 8 min 19 sec) 
Heartbeat CPU 0 instructions: 120000001 cycles: 183176198 heartbeat IPC: 0.412196 cumulative IPC: 0.41358 (Simulation time: 0 hr 9 min 13 sec) 
*** Reached end of trace for Core: 0 Repeating trace: traces/spec2k17/srv_61.champsimtrace.xz
Heartbeat CPU 0 instructions: 130000000 cycles: 207604881 heartbeat IPC: 0.409355 cumulative IPC: 0.413047 (Simulation time: 0 hr 10 min 7 sec) 
Heartbeat CPU 0 instructions: 140000003 cycles: 231202933 heartbeat IPC: 0.423764 cumulative IPC: 0.414211 (Simulation time: 0 hr 11 min 3 sec) 
Heartbeat CPU 0 instructions: 150000002 cycles: 255306987 heartbeat IPC: 0.414868 cumulative IPC: 0.414276 (Simulation time: 0 hr 11 min 58 sec) 
*** Reached end of trace for Core: 0 Repeating trace: traces/spec2k17/srv_61.champsimtrace.xz
Heartbeat CPU 0 instructions: 160000000 cycles: 279935087 heartbeat IPC: 0.40604 cumulative IPC: 0.413514 (Simulation time: 0 hr 12 min 53 sec) 
Heartbeat CPU 0 instructions: 170000001 cycles: 303530761 heartbeat IPC: 0.423807 cumulative IPC: 0.414352 (Simulation time: 0 hr 13 min 46 sec) 
Heartbeat CPU 0 instructions: 180000001 cycles: 327611260 heartbeat IPC: 0.415274 cumulative IPC: 0.414423 (Simulation time: 0 hr 14 min 41 sec) 
*** Reached end of trace for Core: 0 Repeating trace: traces/spec2k17/srv_61.champsimtrace.xz
Heartbeat CPU 0 instructions: 190000000 cycles: 352004223 heartbeat IPC: 0.409954 cumulative IPC: 0.414101 (Simulation time: 0 hr 15 min 35 sec) 
Heartbeat CPU 0 instructions: 200000002 cycles: 375929585 heartbeat IPC: 0.417967 cumulative IPC: 0.414356 (Simulation time: 0 hr 16 min 29 sec) 
Heartbeat CPU 0 instructions: 210000000 cycles: 400126746 heartbeat IPC: 0.413272 cumulative IPC: 0.414288 (Simulation time: 0 hr 17 min 24 sec) 
*** Reached end of trace for Core: 0 Repeating trace: traces/spec2k17/srv_61.champsimtrace.xz
Heartbeat CPU 0 instructions: 220000000 cycles: 424488408 heartbeat IPC: 0.410481 cumulative IPC: 0.414062 (Simulation time: 0 hr 18 min 18 sec) 
Heartbeat CPU 0 instructions: 230000001 cycles: 448117937 heartbeat IPC: 0.423199 cumulative IPC: 0.41456 (Simulation time: 0 hr 19 min 8 sec) 
Heartbeat CPU 0 instructions: 240000000 cycles: 472311073 heartbeat IPC: 0.41334 cumulative IPC: 0.414495 (Simulation time: 0 hr 20 min 3 sec) 
*** Reached end of trace for Core: 0 Repeating trace: traces/spec2k17/srv_61.champsimtrace.xz
Heartbeat CPU 0 instructions: 250000003 cycles: 496555185 heartbeat IPC: 0.412471 cumulative IPC: 0.414394 (Simulation time: 0 hr 21 min 0 sec) 
Finished CPU 0 instructions: 200000002 cycles: 482632941 cumulative IPC: 0.414394 (Simulation time: 0 hr 21 min 0 sec) 

ChampSim completed all CPUs

Region of Interest Statistics

CPU 0 cumulative IPC: 0.414394 instructions: 200000002 cycles: 482632941
ITLB TOTAL     ACCESS:   31600951  HIT:   30778919  MISS:     822032  HIT %:    97.3987  MISS %:    2.60129   MPKI: 4.11016
ITLB LOAD TRANSLATION ACCESS:   31600951  HIT:   30778919  MISS:     822032  HIT %:    97.3987  MISS %:    2.60129   MPKI: 4.11016
ITLB PREFETCH  REQUESTED:          0  ISSUED:          0  USEFUL:          0  USELESS:          0
ITLB USEFUL LOAD PREFETCHES:          0 PREFETCH ISSUED TO LOWER LEVEL:          0  ACCURACY: -nan
ITLB TIMELY PREFETCHES:          0 LATE PREFETCHES: 0 DROPPED PREFETCHES: 0
ITLB PREFETCHES SAME FILL-ORIGIN LEVEL: 0 DIFFERENT FILL-ORIGIN LEVEL: 0
ITLB AVERAGE MISS LATENCY: 16.0462 cycles
ITLB RQ	ACCESS:   38402027	FORWARD:          0	MERGED:    6603084	TO_CACHE:   31798943

DTLB TOTAL     ACCESS:   37727351  HIT:   35184878  MISS:    2542473  HIT %:    93.2609  MISS %:    6.73907   MPKI: 12.7124
DTLB LOAD TRANSLATION ACCESS:   37727351  HIT:   35184878  MISS:    2542473  HIT %:    93.2609  MISS %:    6.73907   MPKI: 12.7124
DTLB PREFETCH  REQUESTED:          0  ISSUED:          0  USEFUL:          0  USELESS:          0
DTLB USEFUL LOAD PREFETCHES:          0 PREFETCH ISSUED TO LOWER LEVEL:          0  ACCURACY: -nan
DTLB TIMELY PREFETCHES:          0 LATE PREFETCHES: 0 DROPPED PREFETCHES: 0
DTLB PREFETCHES SAME FILL-ORIGIN LEVEL: 0 DIFFERENT FILL-ORIGIN LEVEL: 0
DTLB AVERAGE MISS LATENCY: 14.2038 cycles
DTLB RQ	ACCESS:   48135458	FORWARD:          0	MERGED:   10261811	TO_CACHE:   37873647

STLB TOTAL     ACCESS:    5239431  HIT:    4779283  MISS:     460148  HIT %:    91.2176  MISS %:     8.7824   MPKI: 2.30074
STLB LOAD TRANSLATION ACCESS:    3364505  HIT:    2911423  MISS:     453082  HIT %:    86.5335  MISS %:    13.4665   MPKI: 2.26541
STLB TRANSLATION FROM L1D PREFETCHER ACCESS:    1874926  HIT:    1867860  MISS:       7066  HIT %:    99.6231  MISS %:   0.376868   MPKI: 0.03533
STLB PREFETCH  REQUESTED:          0  ISSUED:          0  USEFUL:       5904  USELESS:       1158
STLB USEFUL LOAD PREFETCHES:       5904 PREFETCH ISSUED TO LOWER LEVEL:          0  ACCURACY: inf
STLB TIMELY PREFETCHES:       5904 LATE PREFETCHES: 261 DROPPED PREFETCHES: 15605
STLB PREFETCHES SAME FILL-ORIGIN LEVEL: 0 DIFFERENT FILL-ORIGIN LEVEL: 0
STLB AVERAGE MISS LATENCY: 3038.71 cycles
STLB RQ	ACCESS:    5456382	FORWARD:          0	MERGED:     199968	TO_CACHE:    5256414

STLB Hit, L1D data hit: 0
STLB Hit, L2C data hit: 0
STLB Hit, LLC data hit: 0
STLB Hit, LLC data miss: 0
STLB STLB hints to L2: 0
L1D TOTAL     ACCESS:   49428319  HIT:   45466625  MISS:    3961694  HIT %:     91.985  MISS %:    8.01503   MPKI: 19.8085
L1D LOAD      ACCESS:   28026927  HIT:   26022235  MISS:    2004692  HIT %:    92.8473  MISS %:    7.15274   MPKI: 10.0235
L1D RFO       ACCESS:   19577651  HIT:   19234605  MISS:     343046  HIT %:    98.2478  MISS %:    1.75223   MPKI: 1.71523
L1D PREFETCH  ACCESS:    1823741  HIT:     209785  MISS:    1613956  HIT %:     11.503  MISS %:     88.497   MPKI: 8.06978
AGUS PREFETCH L1 MISS: 0
L1D PREFETCH  REQUESTED:    4212428  ISSUED:    4212149  USEFUL:     374290  USELESS:    1239576
L1D USEFUL LOAD PREFETCHES:     374290 PREFETCH ISSUED TO LOWER LEVEL:    1655833  ACCURACY: 22.6043
L1D TIMELY PREFETCHES:     374290 LATE PREFETCHES: 40842 DROPPED PREFETCHES: 17652
L1D PREFETCHES SAME FILL-ORIGIN LEVEL: 1655833 DIFFERENT FILL-ORIGIN LEVEL: 0
L1D AVERAGE MISS LATENCY: 2.71692e+06 cycles
L1D RQ	ACCESS:   42170888	FORWARD:          0	MERGED:   13820039	TO_CACHE:   28145216
L1D WQ	ACCESS:   20321693	FORWARD:     206047	MERGED:     331451	TO_CACHE:   19990242
L1D PQ	ACCESS:    2120272	FORWARD:          0	MERGED:      27981	TO_CACHE:    2091877

L1D UNIQUE REGIONS ACCESSED: 0
L1D REGIONS CONFLICTS: 0
L1D Cross Page Prefetch Requests: 74118
L1D Same Page Prefetch Requests: 2568769
L1D ROI Sum of L1D PQ occupancy: 28574007
L1D PREFETCHES PUSHED FROM L2C: 0
L1I TOTAL     ACCESS:   36723143  HIT:   31512158  MISS:    5210985  HIT %:    85.8101  MISS %:    14.1899   MPKI: 26.0549
L1I LOAD      ACCESS:   36723143  HIT:   31512158  MISS:    5210985  HIT %:    85.8101  MISS %:    14.1899   MPKI: 26.0549
L1I PREFETCH  REQUESTED:          0  ISSUED:          0  USEFUL:          0  USELESS:          0
L1I USEFUL LOAD PREFETCHES:          0 PREFETCH ISSUED TO LOWER LEVEL:          0  ACCURACY: -nan
L1I TIMELY PREFETCHES:          0 LATE PREFETCHES: 0 DROPPED PREFETCHES: 0
L1I PREFETCHES SAME FILL-ORIGIN LEVEL: 0 DIFFERENT FILL-ORIGIN LEVEL: 0
L1I AVERAGE MISS LATENCY: 29.5942 cycles
L1I RQ	ACCESS:   57287001	FORWARD:          0	MERGED:   18884974	TO_CACHE:   38402027

BTB TOTAL     ACCESS:   22827168  HIT:   17699490  MISS:    5127678  HIT %:     77.537  MISS %:     22.463   MPKI: 25.6384
BTB BRANCH_DIRECT_JUMP	ACCESS:    1840942  HIT:    1534611  MISS:     306331
BTB BRANCH_INDIRECT	ACCESS:    9660731  HIT:    7262186  MISS:    2398545
BTB BRANCH_CONDITIONAL	ACCESS:    4665085  HIT:    4182126  MISS:     482959
BTB BRANCH_DIRECT_CALL	ACCESS:    2620364  HIT:    2026741  MISS:     593623
BTB BRANCH_INDIRECT_CALL	ACCESS:     705579  HIT:     643161  MISS:      62418
BTB BRANCH_RETURN	ACCESS:    3334467  HIT:    2050665  MISS:    1283802
BTB BRANCH_OTHER ACCESS:          0  HIT:          0  MISS:          0

L2C TOTAL     ACCESS:   10839951  HIT:    5900073  MISS:    4939878  HIT %:     54.429  MISS %:     45.571   MPKI: 24.6994
L2C LOAD      ACCESS:    7174744  HIT:    3659624  MISS:    3515120  HIT %:     51.007  MISS %:     48.993   MPKI: 17.5756
L2C DATA LOAD MPKI: 4.84926
L2C INSTRUCTION LOAD MPKI: 12.7263
L2C RFO       ACCESS:     341952  HIT:     171083  MISS:     170869  HIT %:    50.0313  MISS %:    49.9687   MPKI: 0.854345
L2C PREFETCH  ACCESS:    1655806  HIT:     683218  MISS:     972588  HIT %:     41.262  MISS %:     58.738   MPKI: 4.86294
AGUS PREFETCH L1 MISS: 0
L2C DATA PREFETCH MPKI: 4.86294
L2C INSTRUCTION PREFETCH MPKI: 0
L2C WRITEBACK ACCESS:    1062122  HIT:    1020757  MISS:      41365  HIT %:    96.1054  MISS %:    3.89456   MPKI: 0.206825
L2C LOAD TRANSLATION ACCESS:     573709  HIT:     338895  MISS:     234814  HIT %:    59.0709  MISS %:    40.9291   MPKI: 1.17407
L2C TRANSLATION FROM L1D PREFETCHER ACCESS:      31618  HIT:      26496  MISS:       5122  HIT %:    83.8004  MISS %:    16.1996   MPKI: 0.02561
L2C PREFETCH  REQUESTED:          0  ISSUED:          0  USEFUL:      46984  USELESS:     930379
L2C USEFUL LOAD PREFETCHES:      46984 PREFETCH ISSUED TO LOWER LEVEL:     972588  ACCURACY: 4.83082
L2C TIMELY PREFETCHES:      46984 LATE PREFETCHES: 0 DROPPED PREFETCHES: 0
L2C PREFETCHES SAME FILL-ORIGIN LEVEL: 0 DIFFERENT FILL-ORIGIN LEVEL: 0
L2C AVERAGE MISS LATENCY: 41.9537 cycles
L2C RQ	ACCESS:    8122173	FORWARD:          0	MERGED:          0	TO_CACHE:    8122023
L2C WQ	ACCESS:    1062122	FORWARD:        177	MERGED:          0	TO_CACHE:    1062122
L2C PQ	ACCESS:    1655833	FORWARD:          0	MERGED:          0	TO_CACHE:    1655806

L2C Instructions Evicting Data 1102046
L2C Translations Evicting Data 105035
L2C Data Evicting Data 927881
L2C Instructions Evicting Instructions 1321962
L2C Translations Evicting Instructions 121446
L2C Data Evicting Instructions 1082216
L2C Instructions Evicting Translations 121260
L2C Translations Evicting Translations 13455
L2C Data Evicting Translations 103212
L2C Dense regions hint from L2: 0
PSCL5 TOTAL     ACCESS:     475753  HIT:     475753  MISS:          0  HIT %:        100  MISS %:          0   MPKI: 0
PSCL5 LOAD TRANSLATION ACCESS:     452821  HIT:     452821  MISS:          0  HIT %:        100  MISS %:          0   MPKI: 0
PSCL5 TRANSLATION FROM L1D PREFETCHER ACCESS:      22932  HIT:      22932  MISS:          0  HIT %:        100  MISS %:          0   MPKI: 0
PSCL5 PREFETCH  REQUESTED:          0  ISSUED:          0  USEFUL:          0  USELESS:          0
PSCL5 USEFUL LOAD PREFETCHES:          0 PREFETCH ISSUED TO LOWER LEVEL:          0  ACCURACY: -nan
PSCL5 TIMELY PREFETCHES:          0 LATE PREFETCHES: 0 DROPPED PREFETCHES: 0
PSCL5 PREFETCHES SAME FILL-ORIGIN LEVEL: 0 DIFFERENT FILL-ORIGIN LEVEL: 0

PSCL4 TOTAL     ACCESS:     444185  HIT:     442837  MISS:       1348  HIT %:    99.6965  MISS %:   0.303477   MPKI: 0.00674
PSCL4 LOAD TRANSLATION ACCESS:     424204  HIT:     422856  MISS:       1348  HIT %:    99.6822  MISS %:   0.317772   MPKI: 0.00674
PSCL4 TRANSLATION FROM L1D PREFETCHER ACCESS:      19981  HIT:      19981  MISS:          0  HIT %:        100  MISS %:          0   MPKI: 0
PSCL4 PREFETCH  REQUESTED:          0  ISSUED:          0  USEFUL:          0  USELESS:          0
PSCL4 USEFUL LOAD PREFETCHES:          0 PREFETCH ISSUED TO LOWER LEVEL:          0  ACCURACY: -nan
PSCL4 TIMELY PREFETCHES:          0 LATE PREFETCHES: 0 DROPPED PREFETCHES: 0
PSCL4 PREFETCHES SAME FILL-ORIGIN LEVEL: 0 DIFFERENT FILL-ORIGIN LEVEL: 0

PSCL3 TOTAL     ACCESS:     472072  HIT:     468240  MISS:       3832  HIT %:    99.1883  MISS %:   0.811741   MPKI: 0.01916
PSCL3 LOAD TRANSLATION ACCESS:     449471  HIT:     445639  MISS:       3832  HIT %:    99.1474  MISS %:   0.852558   MPKI: 0.01916
PSCL3 TRANSLATION FROM L1D PREFETCHER ACCESS:      22601  HIT:      22601  MISS:          0  HIT %:        100  MISS %:          0   MPKI: 0
PSCL3 PREFETCH  REQUESTED:          0  ISSUED:          0  USEFUL:          0  USELESS:          0
PSCL3 USEFUL LOAD PREFETCHES:          0 PREFETCH ISSUED TO LOWER LEVEL:          0  ACCURACY: -nan
PSCL3 TIMELY PREFETCHES:          0 LATE PREFETCHES: 0 DROPPED PREFETCHES: 0
PSCL3 PREFETCHES SAME FILL-ORIGIN LEVEL: 0 DIFFERENT FILL-ORIGIN LEVEL: 0

PSCL2 TOTAL     ACCESS:     469243  HIT:     351545  MISS:     117698  HIT %:    74.9175  MISS %:    25.0825   MPKI: 0.58849
PSCL2 LOAD TRANSLATION ACCESS:     454742  HIT:     337044  MISS:     117698  HIT %:    74.1176  MISS %:    25.8824   MPKI: 0.58849
PSCL2 TRANSLATION FROM L1D PREFETCHER ACCESS:      14501  HIT:      14501  MISS:          0  HIT %:        100  MISS %:          0   MPKI: 0
PSCL2 PREFETCH  REQUESTED:          0  ISSUED:          0  USEFUL:          0  USELESS:          0
PSCL2 USEFUL LOAD PREFETCHES:          0 PREFETCH ISSUED TO LOWER LEVEL:          0  ACCURACY: -nan
PSCL2 TIMELY PREFETCHES:          0 LATE PREFETCHES: 0 DROPPED PREFETCHES: 0
PSCL2 PREFETCHES SAME FILL-ORIGIN LEVEL: 0 DIFFERENT FILL-ORIGIN LEVEL: 0

LLC TOTAL     ACCESS:    5407591  HIT:    5017052  MISS:     390539  HIT %:    92.7779  MISS %:    7.22205   MPKI: 1.95269
LLC LOAD      ACCESS:    3515119  HIT:    3351935  MISS:     163184  HIT %:    95.3577  MISS %:    4.64235   MPKI: 0.81592
LLC RFO       ACCESS:     170866  HIT:     122814  MISS:      48052  HIT %:    71.8774  MISS %:    28.1226   MPKI: 0.24026
LLC PREFETCH  ACCESS:     972588  HIT:     805944  MISS:     166644  HIT %:    82.8659  MISS %:    17.1341   MPKI: 0.83322
AGUS PREFETCH L1 MISS: 0
LLC WRITEBACK ACCESS:     509082  HIT:     503529  MISS:       5553  HIT %:    98.9092  MISS %:    1.09079   MPKI: 0.027765
LLC LOAD TRANSLATION ACCESS:     234814  HIT:     228060  MISS:       6754  HIT %:    97.1237  MISS %:    2.87632   MPKI: 0.03377
LLC TRANSLATION FROM L1D PREFETCHER ACCESS:       5122  HIT:       4770  MISS:        352  HIT %:    93.1277  MISS %:    6.87232   MPKI: 0.00176
LLC PREFETCH  REQUESTED:          0  ISSUED:          0  USEFUL:       9468  USELESS:     156945
LLC USEFUL LOAD PREFETCHES:       9468 PREFETCH ISSUED TO LOWER LEVEL:     166644  ACCURACY: 5.68157
LLC TIMELY PREFETCHES:       9468 LATE PREFETCHES: 0 DROPPED PREFETCHES: 0
LLC PREFETCHES SAME FILL-ORIGIN LEVEL: 0 DIFFERENT FILL-ORIGIN LEVEL: 0
LLC AVERAGE MISS LATENCY: 154.371 cycles
LLC RQ	ACCESS:    3925925	FORWARD:          0	MERGED:          0	TO_CACHE:    3925921
LLC WQ	ACCESS:     509082	FORWARD:          4	MERGED:          0	TO_CACHE:     509082
LLC PQ	ACCESS:     972588	FORWARD:          0	MERGED:          0	TO_CACHE:     972588

LLC Dense regions hint to LLC: 0

RAW hits: 2659117
Loads Generated: 44830005
Loads sent to L1D: 42170888
Stores Generated: 20321689
Stores sent to L1D: 20321693
Major fault: 0 Minor fault: 4273
Allocated PAGES: 4273
CPU 0 L1d next line prefetcher final stats

-63,209
-62,165
-61,190
-60,183
-59,181
-58,136
-57,153
-56,130
-55,135
-54,136
-53,172
-52,177
-51,179
-50,277
-49,233
-48,179
-47,175
-46,195
-45,231
-44,234
-43,202
-42,257
-41,251
-40,260
-39,287
-38,265
-37,270
-36,268
-35,360
-34,338
-33,357
-32,329
-31,369
-30,360
-29,327
-28,298
-27,318
-26,338
-25,376
-24,392
-23,437
-22,401
-21,562
-20,468
-19,456
-18,507
-17,430
-16,420
-15,511
-14,569
-13,603
-12,610
-11,721
-10,780
-9,629
-8,672
-7,720
-6,796
-5,862
-4,897
-3,1082
-2,1621
-1,2395
0,2572
1,3359
2,2811
3,2521
4,3011
5,2317
6,2169
7,1984
8,2346
9,1810
10,1853
11,1685
12,1751
13,1546
14,1316
15,1448
16,1535
17,1307
18,1234
19,1204
20,1326
21,1108
22,1036
23,1163
24,1191
25,1216
26,1011
27,1070
28,1099
29,1051
30,1031
31,1060
32,1037
33,1012
34,897
35,952
36,951
37,866
38,783
39,842
40,943
41,799
42,810
43,835
44,819
45,823
46,753
47,734
48,744
49,703
50,642
51,700
52,686
53,675
54,648
55,723
56,637
57,599
58,602
59,606
60,642
61,590
62,607
63,610

DRAM Statistics
 CHANNEL 0
 RQ ROW_BUFFER_HIT:      65856  ROW_BUFFER_MISS:     319129
 DBUS_CONGESTED:        142
 WQ ROW_BUFFER_HIT:      20895  ROW_BUFFER_MISS:     209212  FULL:          0

 AVG_CONGESTED_CYCLE: 4
 All warmup complete: 2
Channel 0 Bank busy for read cycles: 0
Channel 0 Bank busy for write cycles: 0
Channel 0
Rank 0
0banks busy for read cycles: 426670264
0banks busy for write cycles: 114447
1banks busy for read cycles: 19750551
1banks busy for write cycles: 12274696
2banks busy for read cycles: 11578362
2banks busy for write cycles: 6402149
3banks busy for read cycles: 1432222
3banks busy for write cycles: 1678879
4banks busy for read cycles: 564039
4banks busy for write cycles: 801554
5banks busy for read cycles: 155485
5banks busy for write cycles: 422068
6banks busy for read cycles: 59206
6banks busy for write cycles: 266982
7banks busy for read cycles: 33566
7banks busy for write cycles: 192683
8banks busy for read cycles: 43673
8banks busy for write cycles: 192116

CPU 0 Branch Prediction Accuracy: 99.805% MPKI: 0.35292 Average ROB Occupancy at Mispredict: 32.5789
Branch types
NOT_BRANCH: 163812004 81.906%
BRANCH_DIRECT_JUMP: 1840942 0.920471%
BRANCH_INDIRECT: 9660731 4.83037%
BRANCH_CONDITIONAL: 18025786 9.01289%
BRANCH_DIRECT_CALL: 2620364 1.31018%
BRANCH_INDIRECT_CALL: 705579 0.352789%
BRANCH_RETURN: 3334467 1.66723%
BRANCH_OTHER: 0 0%

DRAM PAGES: 1048576
Allocated PAGES: 4273
