
*** ChampSim Multicore Out-of-Order Simulator ***

Warmup Instructions: 25000000
Simulation Instructions: 25000000
Number of CPUs: 1
LLC sets: 2048
LLC ways: 16
Off-chip DRAM Size: 4096 MB Channels: 1 Width: 64-bit Data Rate: 6400 MT/s
CPU 0 runs ../../traces/spec2k17/server_035.champsimtrace.xz
.xz
BTB has LRU replacement policy
ITLB has LRU replacement policy
DTLB has LRU replacement policy
STLB has LRU replacement policy
L1I has LRU replacement policy
L1D has LRU replacement policy
Initialize SRRIP state for L2C
Initialize DRRIP state for LLC
Heartbeat CPU 0 instructions: 10000003 cycles: 2808228 heartbeat IPC: 3.56097 cumulative IPC: 3.56097 (Simulation time: 0 hr 3 min 16 sec) 
Heartbeat CPU 0 instructions: 20000000 cycles: 5612786 heartbeat IPC: 3.56562 cumulative IPC: 3.56329 (Simulation time: 0 hr 5 min 50 sec) 

Warmup complete CPU 0 instructions: 25000002 cycles: 7015429 (Simulation time: 0 hr 7 min 19 sec) 

Heartbeat CPU 0 instructions: 30000001 cycles: 19794795 heartbeat IPC: 0.705119 cumulative IPC: 0.391256 (Simulation time: 0 hr 9 min 15 sec) 
Heartbeat CPU 0 instructions: 40000002 cycles: 45191616 heartbeat IPC: 0.39375 cumulative IPC: 0.392915 (Simulation time: 0 hr 12 min 45 sec) 
Heartbeat CPU 0 instructions: 50000003 cycles: 70621610 heartbeat IPC: 0.393236 cumulative IPC: 0.393044 (Simulation time: 0 hr 16 min 6 sec) 
Finished CPU 0 instructions: 25000001 cycles: 63606181 cumulative IPC: 0.393044 (Simulation time: 0 hr 16 min 6 sec) 

ChampSim completed all CPUs

Region of Interest Statistics

CPU 0 cumulative IPC: 0.393044 instructions: 25000001 cycles: 63606181
ITLB TOTAL     ACCESS:    4451179  HIT:    4194263  MISS:     256916  HIT %:    94.2281  MISS %:    5.77186   MPKI: 10.2766
ITLB LOAD TRANSLATION ACCESS:    4451179  HIT:    4194263  MISS:     256916  HIT %:    94.2281  MISS %:    5.77186   MPKI: 10.2766
ITLB PREFETCH  REQUESTED:          0  ISSUED:          0  USEFUL:          0  USELESS:          0
ITLB USEFUL LOAD PREFETCHES:          0 PREFETCH ISSUED TO LOWER LEVEL:          0  ACCURACY: -nan
ITLB TIMELY PREFETCHES:          0 LATE PREFETCHES: 0 DROPPED PREFETCHES: 0
ITLB PREFETCHES SAME FILL-ORIGIN LEVEL: 0 DIFFERENT FILL-ORIGIN LEVEL: 0
ITLB AVERAGE MISS LATENCY: 9.02104 cycles
ITLB RQ	ACCESS:    5163873	FORWARD:          0	MERGED:     655832	TO_CACHE:    4508041

DTLB TOTAL     ACCESS:    4955428  HIT:    4738678  MISS:     216750  HIT %:     95.626  MISS %:    4.37399   MPKI: 8.67
DTLB LOAD TRANSLATION ACCESS:    4955428  HIT:    4738678  MISS:     216750  HIT %:     95.626  MISS %:    4.37399   MPKI: 8.67
DTLB PREFETCH  REQUESTED:          0  ISSUED:          0  USEFUL:          0  USELESS:          0
DTLB USEFUL LOAD PREFETCHES:          0 PREFETCH ISSUED TO LOWER LEVEL:          0  ACCURACY: -nan
DTLB TIMELY PREFETCHES:          0 LATE PREFETCHES: 0 DROPPED PREFETCHES: 0
DTLB PREFETCHES SAME FILL-ORIGIN LEVEL: 0 DIFFERENT FILL-ORIGIN LEVEL: 0
DTLB AVERAGE MISS LATENCY: 10.1113 cycles
DTLB RQ	ACCESS:    6906455	FORWARD:          0	MERGED:    1941305	TO_CACHE:    4965150

STLB TOTAL     ACCESS:     473666  HIT:     469883  MISS:       3783  HIT %:    99.2013  MISS %:   0.798664   MPKI: 0.15132
STLB LOAD TRANSLATION ACCESS:     473666  HIT:     469883  MISS:       3783  HIT %:    99.2013  MISS %:   0.798664   MPKI: 0.15132
STLB PREFETCH  REQUESTED:          0  ISSUED:          0  USEFUL:          0  USELESS:          0
STLB USEFUL LOAD PREFETCHES:          0 PREFETCH ISSUED TO LOWER LEVEL:          0  ACCURACY: -nan
STLB TIMELY PREFETCHES:          0 LATE PREFETCHES: 0 DROPPED PREFETCHES: 0
STLB PREFETCHES SAME FILL-ORIGIN LEVEL: 0 DIFFERENT FILL-ORIGIN LEVEL: 0
STLB AVERAGE MISS LATENCY: 63.3074 cycles
STLB RQ	ACCESS:     473666	FORWARD:          0	MERGED:          0	TO_CACHE:     473666

STLB Hit, L1D data hit: 0
STLB Hit, L2C data hit: 0
STLB Hit, LLC data hit: 0
STLB Hit, LLC data miss: 0
STLB STLB hints to L2: 0
L1D TOTAL     ACCESS:    6906453  HIT:    6906453  MISS:          0  HIT %:        100  MISS %:          0   MPKI: 0
L1D LOAD      ACCESS:    3811582  HIT:    3811582  MISS:          0  HIT %:        100  MISS %:          0   MPKI: 0
L1D RFO       ACCESS:    3094871  HIT:    3094871  MISS:          0  HIT %:        100  MISS %:          0   MPKI: 0
L1D PREFETCH  REQUESTED:          0  ISSUED:          0  USEFUL:          0  USELESS:          0
L1D USEFUL LOAD PREFETCHES:          0 PREFETCH ISSUED TO LOWER LEVEL:          0  ACCURACY: -nan
L1D TIMELY PREFETCHES:          0 LATE PREFETCHES: 0 DROPPED PREFETCHES: 0
L1D PREFETCHES SAME FILL-ORIGIN LEVEL: 0 DIFFERENT FILL-ORIGIN LEVEL: 0
L1D AVERAGE MISS LATENCY: -nan cycles
L1D RQ	ACCESS:    5454750	FORWARD:          0	MERGED:    1599540	TO_CACHE:    3811583
L1D WQ	ACCESS:    3125022	FORWARD:      43627	MERGED:      30150	TO_CACHE:    3094872

L1D UNIQUE REGIONS ACCESSED: 0
L1D REGIONS CONFLICTS: 0
L1D Cross Page Prefetch Requests: 0
L1D Same Page Prefetch Requests: 0
L1D ROI Sum of L1D PQ occupancy: 0
L1D PREFETCHES PUSHED FROM L2C: 0
L1I TOTAL     ACCESS:    4831484  HIT:    3223864  MISS:    1607620  HIT %:    66.7262  MISS %:    33.2738   MPKI: 64.3048
L1I LOAD      ACCESS:    4831484  HIT:    3223864  MISS:    1607620  HIT %:    66.7262  MISS %:    33.2738   MPKI: 64.3048
L1I PREFETCH  REQUESTED:          0  ISSUED:          0  USEFUL:          0  USELESS:          0
L1I USEFUL LOAD PREFETCHES:          0 PREFETCH ISSUED TO LOWER LEVEL:          0  ACCURACY: -nan
L1I TIMELY PREFETCHES:          0 LATE PREFETCHES: 0 DROPPED PREFETCHES: 0
L1I PREFETCHES SAME FILL-ORIGIN LEVEL: 0 DIFFERENT FILL-ORIGIN LEVEL: 0
L1I AVERAGE MISS LATENCY: 14.0964 cycles
L1I RQ	ACCESS:    7620583	FORWARD:          0	MERGED:    2456710	TO_CACHE:    5163873

BTB TOTAL     ACCESS:    3887402  HIT:    2830476  MISS:    1056926  HIT %:    72.8115  MISS %:    27.1885   MPKI: 42.277
BTB BRANCH_DIRECT_JUMP	ACCESS:     368765  HIT:     288756  MISS:      80009
BTB BRANCH_INDIRECT	ACCESS:    1635053  HIT:    1183085  MISS:     451968
BTB BRANCH_CONDITIONAL	ACCESS:     667355  HIT:     583463  MISS:      83892
BTB BRANCH_DIRECT_CALL	ACCESS:     508535  HIT:     388289  MISS:     120246
BTB BRANCH_INDIRECT_CALL	ACCESS:      99589  HIT:      56123  MISS:      43466
BTB BRANCH_RETURN	ACCESS:     608105  HIT:     330760  MISS:     277345
BTB BRANCH_OTHER ACCESS:          0  HIT:          0  MISS:          0

L2C TOTAL     ACCESS:    1611673  HIT:    1611482  MISS:        191  HIT %:    99.9881  MISS %:   0.011851   MPKI: 0.00764
L2C LOAD      ACCESS:    1607620  HIT:    1607559  MISS:         61  HIT %:    99.9962  MISS %: 0.00379443   MPKI: 0.00244
L2C DATA LOAD MPKI: 0
L2C INSTRUCTION LOAD MPKI: 0.00244
L2C LOAD TRANSLATION ACCESS:       4053  HIT:       3923  MISS:        130  HIT %:    96.7925  MISS %:     3.2075   MPKI: 0.0052
L2C PREFETCH  REQUESTED:          0  ISSUED:          0  USEFUL:          0  USELESS:          0
L2C USEFUL LOAD PREFETCHES:          0 PREFETCH ISSUED TO LOWER LEVEL:          0  ACCURACY: -nan
L2C TIMELY PREFETCHES:          0 LATE PREFETCHES: 0 DROPPED PREFETCHES: 0
L2C PREFETCHES SAME FILL-ORIGIN LEVEL: 0 DIFFERENT FILL-ORIGIN LEVEL: 0
L2C AVERAGE MISS LATENCY: 167.225 cycles
L2C RQ	ACCESS:    1611673	FORWARD:          0	MERGED:          0	TO_CACHE:    1611673

L2C Instructions Evicting Data 0
L2C Translations Evicting Data 0
L2C Data Evicting Data 0
L2C Instructions Evicting Instructions 14
L2C Translations Evicting Instructions 2
L2C Data Evicting Instructions 0
L2C Instructions Evicting Translations 3
L2C Translations Evicting Translations 1
L2C Data Evicting Translations 0
L2C Dense regions hint from L2: 0
PSCL5 TOTAL     ACCESS:       3783  HIT:       3783  MISS:          0  HIT %:        100  MISS %:          0   MPKI: 0
PSCL5 LOAD TRANSLATION ACCESS:       3783  HIT:       3783  MISS:          0  HIT %:        100  MISS %:          0   MPKI: 0
PSCL5 PREFETCH  REQUESTED:          0  ISSUED:          0  USEFUL:          0  USELESS:          0
PSCL5 USEFUL LOAD PREFETCHES:          0 PREFETCH ISSUED TO LOWER LEVEL:          0  ACCURACY: -nan
PSCL5 TIMELY PREFETCHES:          0 LATE PREFETCHES: 0 DROPPED PREFETCHES: 0
PSCL5 PREFETCHES SAME FILL-ORIGIN LEVEL: 0 DIFFERENT FILL-ORIGIN LEVEL: 0

PSCL4 TOTAL     ACCESS:       3472  HIT:       3463  MISS:          9  HIT %:    99.7408  MISS %:   0.259217   MPKI: 0.00036
PSCL4 LOAD TRANSLATION ACCESS:       3472  HIT:       3463  MISS:          9  HIT %:    99.7408  MISS %:   0.259217   MPKI: 0.00036
PSCL4 PREFETCH  REQUESTED:          0  ISSUED:          0  USEFUL:          0  USELESS:          0
PSCL4 USEFUL LOAD PREFETCHES:          0 PREFETCH ISSUED TO LOWER LEVEL:          0  ACCURACY: -nan
PSCL4 TIMELY PREFETCHES:          0 LATE PREFETCHES: 0 DROPPED PREFETCHES: 0
PSCL4 PREFETCHES SAME FILL-ORIGIN LEVEL: 0 DIFFERENT FILL-ORIGIN LEVEL: 0

PSCL3 TOTAL     ACCESS:       3679  HIT:       3660  MISS:         19  HIT %:    99.4836  MISS %:   0.516445   MPKI: 0.00076
PSCL3 LOAD TRANSLATION ACCESS:       3679  HIT:       3660  MISS:         19  HIT %:    99.4836  MISS %:   0.516445   MPKI: 0.00076
PSCL3 PREFETCH  REQUESTED:          0  ISSUED:          0  USEFUL:          0  USELESS:          0
PSCL3 USEFUL LOAD PREFETCHES:          0 PREFETCH ISSUED TO LOWER LEVEL:          0  ACCURACY: -nan
PSCL3 TIMELY PREFETCHES:          0 LATE PREFETCHES: 0 DROPPED PREFETCHES: 0
PSCL3 PREFETCHES SAME FILL-ORIGIN LEVEL: 0 DIFFERENT FILL-ORIGIN LEVEL: 0

PSCL2 TOTAL     ACCESS:       3783  HIT:       3539  MISS:        244  HIT %:    93.5501  MISS %:    6.44991   MPKI: 0.00976
PSCL2 LOAD TRANSLATION ACCESS:       3783  HIT:       3539  MISS:        244  HIT %:    93.5501  MISS %:    6.44991   MPKI: 0.00976
PSCL2 PREFETCH  REQUESTED:          0  ISSUED:          0  USEFUL:          0  USELESS:          0
PSCL2 USEFUL LOAD PREFETCHES:          0 PREFETCH ISSUED TO LOWER LEVEL:          0  ACCURACY: -nan
PSCL2 TIMELY PREFETCHES:          0 LATE PREFETCHES: 0 DROPPED PREFETCHES: 0
PSCL2 PREFETCHES SAME FILL-ORIGIN LEVEL: 0 DIFFERENT FILL-ORIGIN LEVEL: 0

LLC TOTAL     ACCESS:        191  HIT:         18  MISS:        173  HIT %:    9.42408  MISS %:    90.5759   MPKI: 0.00692
LLC LOAD      ACCESS:         61  HIT:         16  MISS:         45  HIT %:    26.2295  MISS %:    73.7705   MPKI: 0.0018
LLC LOAD TRANSLATION ACCESS:        130  HIT:          2  MISS:        128  HIT %:    1.53846  MISS %:    98.4615   MPKI: 0.00512
LLC PREFETCH  REQUESTED:          0  ISSUED:          0  USEFUL:          0  USELESS:          0
LLC USEFUL LOAD PREFETCHES:          0 PREFETCH ISSUED TO LOWER LEVEL:          0  ACCURACY: -nan
LLC TIMELY PREFETCHES:          0 LATE PREFETCHES: 0 DROPPED PREFETCHES: 0
LLC PREFETCHES SAME FILL-ORIGIN LEVEL: 0 DIFFERENT FILL-ORIGIN LEVEL: 0
LLC AVERAGE MISS LATENCY: 151.503 cycles
LLC RQ	ACCESS:        191	FORWARD:          0	MERGED:          0	TO_CACHE:        191

LLC Dense regions hint to LLC: 0

RAW hits: 314064
Loads Generated: 5768814
Loads sent to L1D: 5454750
Stores Generated: 3125013
Stores sent to L1D: 3125022
Major fault: 0 Minor fault: 5176
Allocated PAGES: 5176

DRAM Statistics
 CHANNEL 0
 RQ ROW_BUFFER_HIT:         32  ROW_BUFFER_MISS:        141
 DBUS_CONGESTED:          0
 WQ ROW_BUFFER_HIT:          0  ROW_BUFFER_MISS:          0  FULL:          0

 AVG_CONGESTED_CYCLE: -
 All warmup complete: 2
Channel 0 Bank busy for read cycles: 0
Channel 0 Bank busy for write cycles: 0
Channel 0
Rank 0
0banks busy for read cycles: 63583924
0banks busy for write cycles: 0
1banks busy for read cycles: 21766
1banks busy for write cycles: 0
2banks busy for read cycles: 492
2banks busy for write cycles: 0
3banks busy for read cycles: 0
3banks busy for write cycles: 0
4banks busy for read cycles: 0
4banks busy for write cycles: 0
5banks busy for read cycles: 0
5banks busy for write cycles: 0
6banks busy for read cycles: 0
6banks busy for write cycles: 0
7banks busy for read cycles: 0
7banks busy for write cycles: 0
8banks busy for read cycles: 0
8banks busy for write cycles: 0

CPU 0 Branch Prediction Accuracy: 99.9399% MPKI: 0.11164 Average ROB Occupancy at Mispredict: 11.3114
Branch types
NOT_BRANCH: 20355752 81.423%
BRANCH_DIRECT_JUMP: 368765 1.47506%
BRANCH_INDIRECT: 1635053 6.54021%
BRANCH_CONDITIONAL: 1424176 5.6967%
BRANCH_DIRECT_CALL: 508535 2.03414%
BRANCH_INDIRECT_CALL: 99589 0.398356%
BRANCH_RETURN: 608105 2.43242%
BRANCH_OTHER: 0 0%

DRAM PAGES: 1048576
Allocated PAGES: 5176
