
*** ChampSim Multicore Out-of-Order Simulator ***

Warmup Instructions: 25000000
Simulation Instructions: 25000000
Number of CPUs: 1
LLC sets: 2048
LLC ways: 16
Off-chip DRAM Size: 4096 MB Channels: 1 Width: 64-bit Data Rate: 6400 MT/s
CPU 0 runs ../../traces/spec2k17/server_018.champsimtrace.xz
.xz
BTB has LRU replacement policy
ITLB has LRU replacement policy
DTLB has LRU replacement policy
STLB has LRU replacement policy
L1I has LRU replacement policy
L1D has LRU replacement policy
Initialize SRRIP state for L2C
Initialize DRRIP state for LLC
Heartbeat CPU 0 instructions: 10000001 cycles: 2915257 heartbeat IPC: 3.43023 cumulative IPC: 3.43023 (Simulation time: 0 hr 4 min 18 sec) 
Heartbeat CPU 0 instructions: 20000000 cycles: 5828945 heartbeat IPC: 3.43208 cumulative IPC: 3.43115 (Simulation time: 0 hr 8 min 6 sec) 

Warmup complete CPU 0 instructions: 25000002 cycles: 7285379 (Simulation time: 0 hr 9 min 40 sec) 

Heartbeat CPU 0 instructions: 30000000 cycles: 15179717 heartbeat IPC: 1.06943 cumulative IPC: 0.633365 (Simulation time: 0 hr 11 min 15 sec) 
Heartbeat CPU 0 instructions: 40000000 cycles: 29895822 heartbeat IPC: 0.679528 cumulative IPC: 0.66341 (Simulation time: 0 hr 14 min 20 sec) 
Heartbeat CPU 0 instructions: 50000003 cycles: 45225337 heartbeat IPC: 0.652337 cumulative IPC: 0.658936 (Simulation time: 0 hr 16 min 46 sec) 
Finished CPU 0 instructions: 25000001 cycles: 37939958 cumulative IPC: 0.658936 (Simulation time: 0 hr 16 min 46 sec) 

ChampSim completed all CPUs

Region of Interest Statistics

CPU 0 cumulative IPC: 0.658936 instructions: 25000001 cycles: 37939958
ITLB TOTAL     ACCESS:    4113914  HIT:    3965910  MISS:     148004  HIT %:    96.4024  MISS %:    3.59764   MPKI: 5.92016
ITLB LOAD TRANSLATION ACCESS:    4113914  HIT:    3965910  MISS:     148004  HIT %:    96.4024  MISS %:    3.59764   MPKI: 5.92016
ITLB PREFETCH  REQUESTED:          0  ISSUED:          0  USEFUL:          0  USELESS:          0
ITLB USEFUL LOAD PREFETCHES:          0 PREFETCH ISSUED TO LOWER LEVEL:          0  ACCURACY: -nan
ITLB TIMELY PREFETCHES:          0 LATE PREFETCHES: 0 DROPPED PREFETCHES: 0
ITLB PREFETCHES SAME FILL-ORIGIN LEVEL: 0 DIFFERENT FILL-ORIGIN LEVEL: 0
ITLB AVERAGE MISS LATENCY: 9.20585 cycles
ITLB RQ	ACCESS:    4880880	FORWARD:          0	MERGED:     719404	TO_CACHE:    4161476

DTLB TOTAL     ACCESS:    4910069  HIT:    4698411  MISS:     211658  HIT %:    95.6893  MISS %:    4.31069   MPKI: 8.46632
DTLB LOAD TRANSLATION ACCESS:    4910069  HIT:    4698411  MISS:     211658  HIT %:    95.6893  MISS %:    4.31069   MPKI: 8.46632
DTLB PREFETCH  REQUESTED:          0  ISSUED:          0  USEFUL:          0  USELESS:          0
DTLB USEFUL LOAD PREFETCHES:          0 PREFETCH ISSUED TO LOWER LEVEL:          0  ACCURACY: -nan
DTLB TIMELY PREFETCHES:          0 LATE PREFETCHES: 0 DROPPED PREFETCHES: 0
DTLB PREFETCHES SAME FILL-ORIGIN LEVEL: 0 DIFFERENT FILL-ORIGIN LEVEL: 0
DTLB AVERAGE MISS LATENCY: 13.3165 cycles
DTLB RQ	ACCESS:    6937994	FORWARD:          0	MERGED:    1993171	TO_CACHE:    4944823

STLB TOTAL     ACCESS:     359662  HIT:     336706  MISS:      22956  HIT %:    93.6173  MISS %:    6.38266   MPKI: 0.91824
STLB LOAD TRANSLATION ACCESS:     359662  HIT:     336706  MISS:      22956  HIT %:    93.6173  MISS %:    6.38266   MPKI: 0.91824
STLB PREFETCH  REQUESTED:          0  ISSUED:          0  USEFUL:          0  USELESS:          0
STLB USEFUL LOAD PREFETCHES:          0 PREFETCH ISSUED TO LOWER LEVEL:          0  ACCURACY: -nan
STLB TIMELY PREFETCHES:          0 LATE PREFETCHES: 0 DROPPED PREFETCHES: 0
STLB PREFETCHES SAME FILL-ORIGIN LEVEL: 0 DIFFERENT FILL-ORIGIN LEVEL: 0
STLB AVERAGE MISS LATENCY: 40.9234 cycles
STLB RQ	ACCESS:     359662	FORWARD:          0	MERGED:          0	TO_CACHE:     359662

STLB Hit, L1D data hit: 0
STLB Hit, L2C data hit: 0
STLB Hit, LLC data hit: 0
STLB Hit, LLC data miss: 0
STLB STLB hints to L2: 0
L1D TOTAL     ACCESS:    6937987  HIT:    6937987  MISS:          0  HIT %:        100  MISS %:          0   MPKI: 0
L1D LOAD      ACCESS:    3356711  HIT:    3356711  MISS:          0  HIT %:        100  MISS %:          0   MPKI: 0
L1D RFO       ACCESS:    3581276  HIT:    3581276  MISS:          0  HIT %:        100  MISS %:          0   MPKI: 0
L1D PREFETCH  REQUESTED:          0  ISSUED:          0  USEFUL:          0  USELESS:          0
L1D USEFUL LOAD PREFETCHES:          0 PREFETCH ISSUED TO LOWER LEVEL:          0  ACCURACY: -nan
L1D TIMELY PREFETCHES:          0 LATE PREFETCHES: 0 DROPPED PREFETCHES: 0
L1D PREFETCHES SAME FILL-ORIGIN LEVEL: 0 DIFFERENT FILL-ORIGIN LEVEL: 0
L1D AVERAGE MISS LATENCY: -nan cycles
L1D RQ	ACCESS:    5430779	FORWARD:          0	MERGED:    2050579	TO_CACHE:    3356712
L1D WQ	ACCESS:    3599014	FORWARD:      23488	MERGED:      17732	TO_CACHE:    3581282

L1D UNIQUE REGIONS ACCESSED: 0
L1D REGIONS CONFLICTS: 0
L1D Cross Page Prefetch Requests: 0
L1D Same Page Prefetch Requests: 0
L1D ROI Sum of L1D PQ occupancy: 0
L1D PREFETCHES PUSHED FROM L2C: 0
L1I TOTAL     ACCESS:    4625611  HIT:    3736997  MISS:     888614  HIT %:    80.7893  MISS %:    19.2107   MPKI: 35.5446
L1I LOAD      ACCESS:    4625611  HIT:    3736997  MISS:     888614  HIT %:    80.7893  MISS %:    19.2107   MPKI: 35.5446
L1I PREFETCH  REQUESTED:          0  ISSUED:          0  USEFUL:          0  USELESS:          0
L1I USEFUL LOAD PREFETCHES:          0 PREFETCH ISSUED TO LOWER LEVEL:          0  ACCURACY: -nan
L1I TIMELY PREFETCHES:          0 LATE PREFETCHES: 0 DROPPED PREFETCHES: 0
L1I PREFETCHES SAME FILL-ORIGIN LEVEL: 0 DIFFERENT FILL-ORIGIN LEVEL: 0
L1I AVERAGE MISS LATENCY: 14.3302 cycles
L1I RQ	ACCESS:    7118441	FORWARD:          0	MERGED:    2237561	TO_CACHE:    4880880

BTB TOTAL     ACCESS:    3194215  HIT:    2974324  MISS:     219891  HIT %:     93.116  MISS %:    6.88404   MPKI: 8.79564
BTB BRANCH_DIRECT_JUMP	ACCESS:     221992  HIT:     220518  MISS:       1474
BTB BRANCH_INDIRECT	ACCESS:    1177364  HIT:    1065380  MISS:     111984
BTB BRANCH_CONDITIONAL	ACCESS:    1015037  HIT:    1012971  MISS:       2066
BTB BRANCH_DIRECT_CALL	ACCESS:     274931  HIT:     270597  MISS:       4334
BTB BRANCH_INDIRECT_CALL	ACCESS:     114981  HIT:     104073  MISS:      10908
BTB BRANCH_RETURN	ACCESS:     389910  HIT:     300785  MISS:      89125
BTB BRANCH_OTHER ACCESS:          0  HIT:          0  MISS:          0

L2C TOTAL     ACCESS:     914779  HIT:     912943  MISS:       1836  HIT %:    99.7993  MISS %:   0.200704   MPKI: 0.07344
L2C LOAD      ACCESS:     888613  HIT:     887340  MISS:       1273  HIT %:    99.8567  MISS %:   0.143257   MPKI: 0.05092
L2C DATA LOAD MPKI: 0
L2C INSTRUCTION LOAD MPKI: 0.05092
L2C LOAD TRANSLATION ACCESS:      26166  HIT:      25603  MISS:        563  HIT %:    97.8484  MISS %:    2.15165   MPKI: 0.02252
L2C PREFETCH  REQUESTED:          0  ISSUED:          0  USEFUL:          0  USELESS:          0
L2C USEFUL LOAD PREFETCHES:          0 PREFETCH ISSUED TO LOWER LEVEL:          0  ACCURACY: -nan
L2C TIMELY PREFETCHES:          0 LATE PREFETCHES: 0 DROPPED PREFETCHES: 0
L2C PREFETCHES SAME FILL-ORIGIN LEVEL: 0 DIFFERENT FILL-ORIGIN LEVEL: 0
L2C AVERAGE MISS LATENCY: 171.063 cycles
L2C RQ	ACCESS:     914780	FORWARD:          0	MERGED:          0	TO_CACHE:     914780

L2C Instructions Evicting Data 0
L2C Translations Evicting Data 0
L2C Data Evicting Data 0
L2C Instructions Evicting Instructions 84
L2C Translations Evicting Instructions 38
L2C Data Evicting Instructions 0
L2C Instructions Evicting Translations 39
L2C Translations Evicting Translations 6
L2C Data Evicting Translations 0
L2C Dense regions hint from L2: 0
PSCL5 TOTAL     ACCESS:      22956  HIT:      22956  MISS:          0  HIT %:        100  MISS %:          0   MPKI: 0
PSCL5 LOAD TRANSLATION ACCESS:      22956  HIT:      22956  MISS:          0  HIT %:        100  MISS %:          0   MPKI: 0
PSCL5 PREFETCH  REQUESTED:          0  ISSUED:          0  USEFUL:          0  USELESS:          0
PSCL5 USEFUL LOAD PREFETCHES:          0 PREFETCH ISSUED TO LOWER LEVEL:          0  ACCURACY: -nan
PSCL5 TIMELY PREFETCHES:          0 LATE PREFETCHES: 0 DROPPED PREFETCHES: 0
PSCL5 PREFETCHES SAME FILL-ORIGIN LEVEL: 0 DIFFERENT FILL-ORIGIN LEVEL: 0

PSCL4 TOTAL     ACCESS:      21708  HIT:      21662  MISS:         46  HIT %:    99.7881  MISS %:   0.211903   MPKI: 0.00184
PSCL4 LOAD TRANSLATION ACCESS:      21708  HIT:      21662  MISS:         46  HIT %:    99.7881  MISS %:   0.211903   MPKI: 0.00184
PSCL4 PREFETCH  REQUESTED:          0  ISSUED:          0  USEFUL:          0  USELESS:          0
PSCL4 USEFUL LOAD PREFETCHES:          0 PREFETCH ISSUED TO LOWER LEVEL:          0  ACCURACY: -nan
PSCL4 TIMELY PREFETCHES:          0 LATE PREFETCHES: 0 DROPPED PREFETCHES: 0
PSCL4 PREFETCHES SAME FILL-ORIGIN LEVEL: 0 DIFFERENT FILL-ORIGIN LEVEL: 0

PSCL3 TOTAL     ACCESS:      22938  HIT:      22888  MISS:         50  HIT %:     99.782  MISS %:   0.217979   MPKI: 0.002
PSCL3 LOAD TRANSLATION ACCESS:      22938  HIT:      22888  MISS:         50  HIT %:     99.782  MISS %:   0.217979   MPKI: 0.002
PSCL3 PREFETCH  REQUESTED:          0  ISSUED:          0  USEFUL:          0  USELESS:          0
PSCL3 USEFUL LOAD PREFETCHES:          0 PREFETCH ISSUED TO LOWER LEVEL:          0  ACCURACY: -nan
PSCL3 TIMELY PREFETCHES:          0 LATE PREFETCHES: 0 DROPPED PREFETCHES: 0
PSCL3 PREFETCHES SAME FILL-ORIGIN LEVEL: 0 DIFFERENT FILL-ORIGIN LEVEL: 0

PSCL2 TOTAL     ACCESS:      22956  HIT:      19822  MISS:       3134  HIT %:    86.3478  MISS %:    13.6522   MPKI: 0.12536
PSCL2 LOAD TRANSLATION ACCESS:      22956  HIT:      19822  MISS:       3134  HIT %:    86.3478  MISS %:    13.6522   MPKI: 0.12536
PSCL2 PREFETCH  REQUESTED:          0  ISSUED:          0  USEFUL:          0  USELESS:          0
PSCL2 USEFUL LOAD PREFETCHES:          0 PREFETCH ISSUED TO LOWER LEVEL:          0  ACCURACY: -nan
PSCL2 TIMELY PREFETCHES:          0 LATE PREFETCHES: 0 DROPPED PREFETCHES: 0
PSCL2 PREFETCHES SAME FILL-ORIGIN LEVEL: 0 DIFFERENT FILL-ORIGIN LEVEL: 0

LLC TOTAL     ACCESS:       1836  HIT:         69  MISS:       1767  HIT %:    3.75817  MISS %:    96.2418   MPKI: 0.07068
LLC LOAD      ACCESS:       1273  HIT:         47  MISS:       1226  HIT %:    3.69207  MISS %:    96.3079   MPKI: 0.04904
LLC LOAD TRANSLATION ACCESS:        563  HIT:         22  MISS:        541  HIT %:    3.90764  MISS %:    96.0924   MPKI: 0.02164
LLC PREFETCH  REQUESTED:          0  ISSUED:          0  USEFUL:          0  USELESS:          0
LLC USEFUL LOAD PREFETCHES:          0 PREFETCH ISSUED TO LOWER LEVEL:          0  ACCURACY: -nan
LLC TIMELY PREFETCHES:          0 LATE PREFETCHES: 0 DROPPED PREFETCHES: 0
LLC PREFETCHES SAME FILL-ORIGIN LEVEL: 0 DIFFERENT FILL-ORIGIN LEVEL: 0
LLC AVERAGE MISS LATENCY: 146.484 cycles
LLC RQ	ACCESS:       1836	FORWARD:          0	MERGED:          0	TO_CACHE:       1836

LLC Dense regions hint to LLC: 0

RAW hits: 159834
Loads Generated: 5590617
Loads sent to L1D: 5430779
Stores Generated: 3599011
Stores sent to L1D: 3599014
Major fault: 0 Minor fault: 11982
Allocated PAGES: 11982

DRAM Statistics
 CHANNEL 0
 RQ ROW_BUFFER_HIT:        419  ROW_BUFFER_MISS:       1348
 DBUS_CONGESTED:          0
 WQ ROW_BUFFER_HIT:          0  ROW_BUFFER_MISS:          0  FULL:          0

 AVG_CONGESTED_CYCLE: -
 All warmup complete: 2
Channel 0 Bank busy for read cycles: 0
Channel 0 Bank busy for write cycles: 0
Channel 0
Rank 0
0banks busy for read cycles: 37736068
0banks busy for write cycles: 0
1banks busy for read cycles: 184632
1banks busy for write cycles: 0
2banks busy for read cycles: 19259
2banks busy for write cycles: 0
3banks busy for read cycles: 0
3banks busy for write cycles: 0
4banks busy for read cycles: 0
4banks busy for write cycles: 0
5banks busy for read cycles: 0
5banks busy for write cycles: 0
6banks busy for read cycles: 0
6banks busy for write cycles: 0
7banks busy for read cycles: 0
7banks busy for write cycles: 0
8banks busy for read cycles: 0
8banks busy for write cycles: 0

CPU 0 Branch Prediction Accuracy: 99.9073% MPKI: 0.14964 Average ROB Occupancy at Mispredict: 17.0345
Branch types
NOT_BRANCH: 20962763 83.851%
BRANCH_DIRECT_JUMP: 221992 0.887968%
BRANCH_INDIRECT: 1177364 4.70946%
BRANCH_CONDITIONAL: 1857734 7.43094%
BRANCH_DIRECT_CALL: 274931 1.09972%
BRANCH_INDIRECT_CALL: 114981 0.459924%
BRANCH_RETURN: 389910 1.55964%
BRANCH_OTHER: 0 0%

DRAM PAGES: 1048576
Allocated PAGES: 11982
