
*** ChampSim Multicore Out-of-Order Simulator ***

Warmup Instructions: 25000000
Simulation Instructions: 25000000
Number of CPUs: 1
LLC sets: 2048
LLC ways: 16
Off-chip DRAM Size: 4096 MB Channels: 1 Width: 64-bit Data Rate: 6400 MT/s
CPU 0 runs ../../traces/spec2k17/srv_13.champsimtrace.xz
.xz
BTB has LRU replacement policy
ITLB has LRU replacement policy
DTLB has LRU replacement policy
STLB has LRU replacement policy
L1I has LRU replacement policy
L1D has LRU replacement policy
Initialize SRRIP state for L2C
Initialize DRRIP state for LLC
Heartbeat CPU 0 instructions: 10000002 cycles: 2784777 heartbeat IPC: 3.59095 cumulative IPC: 3.59095 (Simulation time: 0 hr 10 min 38 sec) 
Heartbeat CPU 0 instructions: 20000000 cycles: 5566359 heartbeat IPC: 3.59508 cumulative IPC: 3.59301 (Simulation time: 0 hr 21 min 10 sec) 

Warmup complete CPU 0 instructions: 25000003 cycles: 6958650 (Simulation time: 0 hr 26 min 22 sec) 

Heartbeat CPU 0 instructions: 30000003 cycles: 20989709 heartbeat IPC: 0.648368 cumulative IPC: 0.356352 (Simulation time: 0 hr 33 min 46 sec) 
*** Reached end of trace for Core: 0 Repeating trace: ../../traces/spec2k17/srv_13.champsimtrace.xz
Heartbeat CPU 0 instructions: 40000003 cycles: 48183585 heartbeat IPC: 0.36773 cumulative IPC: 0.363857 (Simulation time: 0 hr 47 min 44 sec) 
Heartbeat CPU 0 instructions: 50000002 cycles: 76347234 heartbeat IPC: 0.355068 cumulative IPC: 0.36029 (Simulation time: 0 hr 57 min 50 sec) 
Finished CPU 0 instructions: 25000000 cycles: 69388617 cumulative IPC: 0.36029 (Simulation time: 0 hr 57 min 50 sec) 

ChampSim completed all CPUs

Region of Interest Statistics

CPU 0 cumulative IPC: 0.36029 instructions: 25000000 cycles: 69388617
ITLB TOTAL     ACCESS:    4293319  HIT:    4065207  MISS:     228112  HIT %:    94.6868  MISS %:    5.31319   MPKI: 9.12448
ITLB LOAD TRANSLATION ACCESS:    4293319  HIT:    4065207  MISS:     228112  HIT %:    94.6868  MISS %:    5.31319   MPKI: 9.12448
ITLB PREFETCH  REQUESTED:          0  ISSUED:          0  USEFUL:          0  USELESS:          0
ITLB USEFUL LOAD PREFETCHES:          0 PREFETCH ISSUED TO LOWER LEVEL:          0  ACCURACY: -nan
ITLB TIMELY PREFETCHES:          0 LATE PREFETCHES: 0 DROPPED PREFETCHES: 0
ITLB PREFETCHES SAME FILL-ORIGIN LEVEL: 0 DIFFERENT FILL-ORIGIN LEVEL: 0
ITLB AVERAGE MISS LATENCY: 9.01856 cycles
ITLB RQ	ACCESS:    5016923	FORWARD:          0	MERGED:     668722	TO_CACHE:    4348201

DTLB TOTAL     ACCESS:    5688614  HIT:    5465571  MISS:     223043  HIT %:    96.0791  MISS %:    3.92087   MPKI: 8.92172
DTLB LOAD TRANSLATION ACCESS:    5688614  HIT:    5465571  MISS:     223043  HIT %:    96.0791  MISS %:    3.92087   MPKI: 8.92172
DTLB PREFETCH  REQUESTED:          0  ISSUED:          0  USEFUL:          0  USELESS:          0
DTLB USEFUL LOAD PREFETCHES:          0 PREFETCH ISSUED TO LOWER LEVEL:          0  ACCURACY: -nan
DTLB TIMELY PREFETCHES:          0 LATE PREFETCHES: 0 DROPPED PREFETCHES: 0
DTLB PREFETCHES SAME FILL-ORIGIN LEVEL: 0 DIFFERENT FILL-ORIGIN LEVEL: 0
DTLB AVERAGE MISS LATENCY: 9.14758 cycles
DTLB RQ	ACCESS:    7476574	FORWARD:          0	MERGED:    1780070	TO_CACHE:    5696504

STLB TOTAL     ACCESS:     451155  HIT:     449978  MISS:       1177  HIT %:    99.7391  MISS %:   0.260886   MPKI: 0.04708
STLB LOAD TRANSLATION ACCESS:     451155  HIT:     449978  MISS:       1177  HIT %:    99.7391  MISS %:   0.260886   MPKI: 0.04708
STLB PREFETCH  REQUESTED:          0  ISSUED:          0  USEFUL:          0  USELESS:          0
STLB USEFUL LOAD PREFETCHES:          0 PREFETCH ISSUED TO LOWER LEVEL:          0  ACCURACY: -nan
STLB TIMELY PREFETCHES:          0 LATE PREFETCHES: 0 DROPPED PREFETCHES: 0
STLB PREFETCHES SAME FILL-ORIGIN LEVEL: 0 DIFFERENT FILL-ORIGIN LEVEL: 0
STLB AVERAGE MISS LATENCY: 28.9176 cycles
STLB RQ	ACCESS:     451155	FORWARD:          0	MERGED:          0	TO_CACHE:     451155

STLB Hit, L1D data hit: 0
STLB Hit, L2C data hit: 0
STLB Hit, LLC data hit: 0
STLB Hit, LLC data miss: 0
STLB STLB hints to L2: 0
L1D TOTAL     ACCESS:    7476579  HIT:    7476579  MISS:          0  HIT %:        100  MISS %:          0   MPKI: 0
L1D LOAD      ACCESS:    4212168  HIT:    4212168  MISS:          0  HIT %:        100  MISS %:          0   MPKI: 0
L1D RFO       ACCESS:    3264411  HIT:    3264411  MISS:          0  HIT %:        100  MISS %:          0   MPKI: 0
L1D PREFETCH  REQUESTED:          0  ISSUED:          0  USEFUL:          0  USELESS:          0
L1D USEFUL LOAD PREFETCHES:          0 PREFETCH ISSUED TO LOWER LEVEL:          0  ACCURACY: -nan
L1D TIMELY PREFETCHES:          0 LATE PREFETCHES: 0 DROPPED PREFETCHES: 0
L1D PREFETCHES SAME FILL-ORIGIN LEVEL: 0 DIFFERENT FILL-ORIGIN LEVEL: 0
L1D AVERAGE MISS LATENCY: -nan cycles
L1D RQ	ACCESS:    5877021	FORWARD:          0	MERGED:    1627418	TO_CACHE:    4212166
L1D WQ	ACCESS:    3284315	FORWARD:      37437	MERGED:      19907	TO_CACHE:    3264408

L1D UNIQUE REGIONS ACCESSED: 0
L1D REGIONS CONFLICTS: 0
L1D Cross Page Prefetch Requests: 0
L1D Same Page Prefetch Requests: 0
L1D ROI Sum of L1D PQ occupancy: 0
L1D PREFETCHES PUSHED FROM L2C: 0
L1I TOTAL     ACCESS:    4845660  HIT:    3648031  MISS:    1197629  HIT %:    75.2845  MISS %:    24.7155   MPKI: 47.9052
L1I LOAD      ACCESS:    4845660  HIT:    3648031  MISS:    1197629  HIT %:    75.2845  MISS %:    24.7155   MPKI: 47.9052
L1I PREFETCH  REQUESTED:          0  ISSUED:          0  USEFUL:          0  USELESS:          0
L1I USEFUL LOAD PREFETCHES:          0 PREFETCH ISSUED TO LOWER LEVEL:          0  ACCURACY: -nan
L1I TIMELY PREFETCHES:          0 LATE PREFETCHES: 0 DROPPED PREFETCHES: 0
L1I PREFETCHES SAME FILL-ORIGIN LEVEL: 0 DIFFERENT FILL-ORIGIN LEVEL: 0
L1I AVERAGE MISS LATENCY: 14.3877 cycles
L1I RQ	ACCESS:    7218434	FORWARD:          0	MERGED:    2201511	TO_CACHE:    5016923

BTB TOTAL     ACCESS:    3787586  HIT:    2374313  MISS:    1413273  HIT %:    62.6867  MISS %:    37.3133   MPKI: 56.5309
BTB BRANCH_DIRECT_JUMP	ACCESS:     273713  HIT:     174327  MISS:      99386
BTB BRANCH_INDIRECT	ACCESS:    1419461  HIT:     890471  MISS:     528990
BTB BRANCH_CONDITIONAL	ACCESS:    1095630  HIT:     952983  MISS:     142647
BTB BRANCH_DIRECT_CALL	ACCESS:     421953  HIT:     190640  MISS:     231313
BTB BRANCH_INDIRECT_CALL	ACCESS:      77434  HIT:      30497  MISS:      46937
BTB BRANCH_RETURN	ACCESS:     499395  HIT:     135395  MISS:     364000
BTB BRANCH_OTHER ACCESS:          0  HIT:          0  MISS:          0

L2C TOTAL     ACCESS:    1198922  HIT:    1186279  MISS:      12643  HIT %:    98.9455  MISS %:    1.05453   MPKI: 0.50572
L2C LOAD      ACCESS:    1197629  HIT:    1185046  MISS:      12583  HIT %:    98.9493  MISS %:    1.05066   MPKI: 0.50332
L2C DATA LOAD MPKI: 0
L2C INSTRUCTION LOAD MPKI: 0.50332
L2C LOAD TRANSLATION ACCESS:       1293  HIT:       1233  MISS:         60  HIT %:    95.3596  MISS %:    4.64037   MPKI: 0.0024
L2C PREFETCH  REQUESTED:          0  ISSUED:          0  USEFUL:          0  USELESS:          0
L2C USEFUL LOAD PREFETCHES:          0 PREFETCH ISSUED TO LOWER LEVEL:          0  ACCURACY: -nan
L2C TIMELY PREFETCHES:          0 LATE PREFETCHES: 0 DROPPED PREFETCHES: 0
L2C PREFETCHES SAME FILL-ORIGIN LEVEL: 0 DIFFERENT FILL-ORIGIN LEVEL: 0
L2C AVERAGE MISS LATENCY: 30.3765 cycles
L2C RQ	ACCESS:    1198923	FORWARD:          0	MERGED:          0	TO_CACHE:    1198923

L2C Instructions Evicting Data 0
L2C Translations Evicting Data 0
L2C Data Evicting Data 0
L2C Instructions Evicting Instructions 12509
L2C Translations Evicting Instructions 52
L2C Data Evicting Instructions 0
L2C Instructions Evicting Translations 54
L2C Translations Evicting Translations 3
L2C Data Evicting Translations 0
L2C Dense regions hint from L2: 0
PSCL5 TOTAL     ACCESS:       1177  HIT:       1177  MISS:          0  HIT %:        100  MISS %:          0   MPKI: 0
PSCL5 LOAD TRANSLATION ACCESS:       1177  HIT:       1177  MISS:          0  HIT %:        100  MISS %:          0   MPKI: 0
PSCL5 PREFETCH  REQUESTED:          0  ISSUED:          0  USEFUL:          0  USELESS:          0
PSCL5 USEFUL LOAD PREFETCHES:          0 PREFETCH ISSUED TO LOWER LEVEL:          0  ACCURACY: -nan
PSCL5 TIMELY PREFETCHES:          0 LATE PREFETCHES: 0 DROPPED PREFETCHES: 0
PSCL5 PREFETCHES SAME FILL-ORIGIN LEVEL: 0 DIFFERENT FILL-ORIGIN LEVEL: 0

PSCL4 TOTAL     ACCESS:       1084  HIT:       1080  MISS:          4  HIT %:     99.631  MISS %:   0.369004   MPKI: 0.00016
PSCL4 LOAD TRANSLATION ACCESS:       1084  HIT:       1080  MISS:          4  HIT %:     99.631  MISS %:   0.369004   MPKI: 0.00016
PSCL4 PREFETCH  REQUESTED:          0  ISSUED:          0  USEFUL:          0  USELESS:          0
PSCL4 USEFUL LOAD PREFETCHES:          0 PREFETCH ISSUED TO LOWER LEVEL:          0  ACCURACY: -nan
PSCL4 TIMELY PREFETCHES:          0 LATE PREFETCHES: 0 DROPPED PREFETCHES: 0
PSCL4 PREFETCHES SAME FILL-ORIGIN LEVEL: 0 DIFFERENT FILL-ORIGIN LEVEL: 0

PSCL3 TOTAL     ACCESS:       1146  HIT:       1142  MISS:          4  HIT %:     99.651  MISS %:    0.34904   MPKI: 0.00016
PSCL3 LOAD TRANSLATION ACCESS:       1146  HIT:       1142  MISS:          4  HIT %:     99.651  MISS %:    0.34904   MPKI: 0.00016
PSCL3 PREFETCH  REQUESTED:          0  ISSUED:          0  USEFUL:          0  USELESS:          0
PSCL3 USEFUL LOAD PREFETCHES:          0 PREFETCH ISSUED TO LOWER LEVEL:          0  ACCURACY: -nan
PSCL3 TIMELY PREFETCHES:          0 LATE PREFETCHES: 0 DROPPED PREFETCHES: 0
PSCL3 PREFETCHES SAME FILL-ORIGIN LEVEL: 0 DIFFERENT FILL-ORIGIN LEVEL: 0

PSCL2 TOTAL     ACCESS:       1177  HIT:       1069  MISS:        108  HIT %:    90.8241  MISS %:    9.17587   MPKI: 0.00432
PSCL2 LOAD TRANSLATION ACCESS:       1177  HIT:       1069  MISS:        108  HIT %:    90.8241  MISS %:    9.17587   MPKI: 0.00432
PSCL2 PREFETCH  REQUESTED:          0  ISSUED:          0  USEFUL:          0  USELESS:          0
PSCL2 USEFUL LOAD PREFETCHES:          0 PREFETCH ISSUED TO LOWER LEVEL:          0  ACCURACY: -nan
PSCL2 TIMELY PREFETCHES:          0 LATE PREFETCHES: 0 DROPPED PREFETCHES: 0
PSCL2 PREFETCHES SAME FILL-ORIGIN LEVEL: 0 DIFFERENT FILL-ORIGIN LEVEL: 0

LLC TOTAL     ACCESS:      12643  HIT:      12615  MISS:         28  HIT %:    99.7785  MISS %:   0.221466   MPKI: 0.00112
LLC LOAD      ACCESS:      12583  HIT:      12561  MISS:         22  HIT %:    99.8252  MISS %:   0.174839   MPKI: 0.00088
LLC LOAD TRANSLATION ACCESS:         60  HIT:         54  MISS:          6  HIT %:         90  MISS %:         10   MPKI: 0.00024
LLC PREFETCH  REQUESTED:          0  ISSUED:          0  USEFUL:          0  USELESS:          0
LLC USEFUL LOAD PREFETCHES:          0 PREFETCH ISSUED TO LOWER LEVEL:          0  ACCURACY: -nan
LLC TIMELY PREFETCHES:          0 LATE PREFETCHES: 0 DROPPED PREFETCHES: 0
LLC PREFETCHES SAME FILL-ORIGIN LEVEL: 0 DIFFERENT FILL-ORIGIN LEVEL: 0
LLC AVERAGE MISS LATENCY: 170 cycles
LLC RQ	ACCESS:      12643	FORWARD:          0	MERGED:          0	TO_CACHE:      12643

LLC Dense regions hint to LLC: 0

RAW hits: 162952
Loads Generated: 6039973
Loads sent to L1D: 5877021
Stores Generated: 3284309
Stores sent to L1D: 3284315
Major fault: 0 Minor fault: 1910
Allocated PAGES: 1910

DRAM Statistics
 CHANNEL 0
 RQ ROW_BUFFER_HIT:          0  ROW_BUFFER_MISS:         28
 DBUS_CONGESTED:          0
 WQ ROW_BUFFER_HIT:          0  ROW_BUFFER_MISS:          0  FULL:          0

 AVG_CONGESTED_CYCLE: -
 All warmup complete: 2
Channel 0 Bank busy for read cycles: 0
Channel 0 Bank busy for write cycles: 0
Channel 0
Rank 0
0banks busy for read cycles: 69384714
0banks busy for write cycles: 0
1banks busy for read cycles: 3608
1banks busy for write cycles: 0
2banks busy for read cycles: 296
2banks busy for write cycles: 0
3banks busy for read cycles: 0
3banks busy for write cycles: 0
4banks busy for read cycles: 0
4banks busy for write cycles: 0
5banks busy for read cycles: 0
5banks busy for write cycles: 0
6banks busy for read cycles: 0
6banks busy for write cycles: 0
7banks busy for read cycles: 0
7banks busy for write cycles: 0
8banks busy for read cycles: 0
8banks busy for write cycles: 0

CPU 0 Branch Prediction Accuracy: 99.7809% MPKI: 0.38656 Average ROB Occupancy at Mispredict: 31.0332
Branch types
NOT_BRANCH: 20589997 82.36%
BRANCH_DIRECT_JUMP: 273713 1.09485%
BRANCH_INDIRECT: 1419461 5.67784%
BRANCH_CONDITIONAL: 1717852 6.87141%
BRANCH_DIRECT_CALL: 421953 1.68781%
BRANCH_INDIRECT_CALL: 77434 0.309736%
BRANCH_RETURN: 499395 1.99758%
BRANCH_OTHER: 0 0%

DRAM PAGES: 1048576
Allocated PAGES: 1910
