
*** ChampSim Multicore Out-of-Order Simulator ***

Warmup Instructions: 25000000
Simulation Instructions: 25000000
Number of CPUs: 1
LLC sets: 2048
LLC ways: 16
Off-chip DRAM Size: 4096 MB Channels: 1 Width: 64-bit Data Rate: 6400 MT/s
CPU 0 runs ../../traces/spec2k17/srv_24.champsimtrace.xz
.xz
BTB has LRU replacement policy
ITLB has LRU replacement policy
DTLB has LRU replacement policy
STLB has LRU replacement policy
L1I has LRU replacement policy
L1D has LRU replacement policy
Initialize SRRIP state for L2C
Initialize DRRIP state for LLC
Heartbeat CPU 0 instructions: 10000000 cycles: 2811427 heartbeat IPC: 3.55691 cumulative IPC: 3.55691 (Simulation time: 0 hr 9 min 43 sec) 
Heartbeat CPU 0 instructions: 20000000 cycles: 5619457 heartbeat IPC: 3.56122 cumulative IPC: 3.55906 (Simulation time: 0 hr 19 min 25 sec) 

Warmup complete CPU 0 instructions: 25000001 cycles: 7023042 (Simulation time: 0 hr 24 min 14 sec) 

Heartbeat CPU 0 instructions: 30000001 cycles: 23023668 heartbeat IPC: 0.574574 cumulative IPC: 0.312488 (Simulation time: 0 hr 31 min 50 sec) 
*** Reached end of trace for Core: 0 Repeating trace: ../../traces/spec2k17/srv_24.champsimtrace.xz
Heartbeat CPU 0 instructions: 40000001 cycles: 54927380 heartbeat IPC: 0.313443 cumulative IPC: 0.313124 (Simulation time: 0 hr 46 min 21 sec) 
Heartbeat CPU 0 instructions: 50000000 cycles: 86792685 heartbeat IPC: 0.313821 cumulative IPC: 0.313402 (Simulation time: 0 hr 57 min 37 sec) 
Finished CPU 0 instructions: 25000003 cycles: 79769649 cumulative IPC: 0.313402 (Simulation time: 0 hr 57 min 37 sec) 

ChampSim completed all CPUs

Region of Interest Statistics

CPU 0 cumulative IPC: 0.313402 instructions: 25000003 cycles: 79769649
ITLB TOTAL     ACCESS:    4417842  HIT:    4114035  MISS:     303807  HIT %:    93.1232  MISS %:    6.87682   MPKI: 12.1523
ITLB LOAD TRANSLATION ACCESS:    4417842  HIT:    4114035  MISS:     303807  HIT %:    93.1232  MISS %:    6.87682   MPKI: 12.1523
ITLB PREFETCH  REQUESTED:          0  ISSUED:          0  USEFUL:          0  USELESS:          0
ITLB USEFUL LOAD PREFETCHES:          0 PREFETCH ISSUED TO LOWER LEVEL:          0  ACCURACY: -nan
ITLB TIMELY PREFETCHES:          0 LATE PREFETCHES: 0 DROPPED PREFETCHES: 0
ITLB PREFETCHES SAME FILL-ORIGIN LEVEL: 0 DIFFERENT FILL-ORIGIN LEVEL: 0
ITLB AVERAGE MISS LATENCY: 9.00296 cycles
ITLB RQ	ACCESS:    5240560	FORWARD:          0	MERGED:     752093	TO_CACHE:    4488467

DTLB TOTAL     ACCESS:    5945997  HIT:    5697224  MISS:     248773  HIT %:    95.8161  MISS %:    4.18387   MPKI: 9.95092
DTLB LOAD TRANSLATION ACCESS:    5945997  HIT:    5697224  MISS:     248773  HIT %:    95.8161  MISS %:    4.18387   MPKI: 9.95092
DTLB PREFETCH  REQUESTED:          0  ISSUED:          0  USEFUL:          0  USELESS:          0
DTLB USEFUL LOAD PREFETCHES:          0 PREFETCH ISSUED TO LOWER LEVEL:          0  ACCURACY: -nan
DTLB TIMELY PREFETCHES:          0 LATE PREFETCHES: 0 DROPPED PREFETCHES: 0
DTLB PREFETCHES SAME FILL-ORIGIN LEVEL: 0 DIFFERENT FILL-ORIGIN LEVEL: 0
DTLB AVERAGE MISS LATENCY: 9.02983 cycles
DTLB RQ	ACCESS:    7845875	FORWARD:          0	MERGED:    1893530	TO_CACHE:    5952345

STLB TOTAL     ACCESS:     552580  HIT:     552418  MISS:        162  HIT %:    99.9707  MISS %:   0.029317   MPKI: 0.00648
STLB LOAD TRANSLATION ACCESS:     552580  HIT:     552418  MISS:        162  HIT %:    99.9707  MISS %:   0.029317   MPKI: 0.00648
STLB PREFETCH  REQUESTED:          0  ISSUED:          0  USEFUL:          0  USELESS:          0
STLB USEFUL LOAD PREFETCHES:          0 PREFETCH ISSUED TO LOWER LEVEL:          0  ACCURACY: -nan
STLB TIMELY PREFETCHES:          0 LATE PREFETCHES: 0 DROPPED PREFETCHES: 0
STLB PREFETCHES SAME FILL-ORIGIN LEVEL: 0 DIFFERENT FILL-ORIGIN LEVEL: 0
STLB AVERAGE MISS LATENCY: 28.8025 cycles
STLB RQ	ACCESS:     552580	FORWARD:          0	MERGED:          0	TO_CACHE:     552580

STLB Hit, L1D data hit: 0
STLB Hit, L2C data hit: 0
STLB Hit, LLC data hit: 0
STLB Hit, LLC data miss: 0
STLB STLB hints to L2: 0
L1D TOTAL     ACCESS:    7845874  HIT:    7845874  MISS:          0  HIT %:        100  MISS %:          0   MPKI: 0
L1D LOAD      ACCESS:    4359447  HIT:    4359447  MISS:          0  HIT %:        100  MISS %:          0   MPKI: 0
L1D RFO       ACCESS:    3486427  HIT:    3486427  MISS:          0  HIT %:        100  MISS %:          0   MPKI: 0
L1D PREFETCH  REQUESTED:          0  ISSUED:          0  USEFUL:          0  USELESS:          0
L1D USEFUL LOAD PREFETCHES:          0 PREFETCH ISSUED TO LOWER LEVEL:          0  ACCURACY: -nan
L1D TIMELY PREFETCHES:          0 LATE PREFETCHES: 0 DROPPED PREFETCHES: 0
L1D PREFETCHES SAME FILL-ORIGIN LEVEL: 0 DIFFERENT FILL-ORIGIN LEVEL: 0
L1D AVERAGE MISS LATENCY: -nan cycles
L1D RQ	ACCESS:    5908889	FORWARD:          0	MERGED:    1505300	TO_CACHE:    4359447
L1D WQ	ACCESS:    3503232	FORWARD:      44142	MERGED:      16804	TO_CACHE:    3486428

L1D UNIQUE REGIONS ACCESSED: 0
L1D REGIONS CONFLICTS: 0
L1D Cross Page Prefetch Requests: 0
L1D Same Page Prefetch Requests: 0
L1D ROI Sum of L1D PQ occupancy: 0
L1D PREFETCHES PUSHED FROM L2C: 0
L1I TOTAL     ACCESS:    5021168  HIT:    3492515  MISS:    1528653  HIT %:    69.5558  MISS %:    30.4442   MPKI: 61.1461
L1I LOAD      ACCESS:    5021168  HIT:    3492515  MISS:    1528653  HIT %:    69.5558  MISS %:    30.4442   MPKI: 61.1461
L1I PREFETCH  REQUESTED:          0  ISSUED:          0  USEFUL:          0  USELESS:          0
L1I USEFUL LOAD PREFETCHES:          0 PREFETCH ISSUED TO LOWER LEVEL:          0  ACCURACY: -nan
L1I TIMELY PREFETCHES:          0 LATE PREFETCHES: 0 DROPPED PREFETCHES: 0
L1I PREFETCHES SAME FILL-ORIGIN LEVEL: 0 DIFFERENT FILL-ORIGIN LEVEL: 0
L1I AVERAGE MISS LATENCY: 14.1577 cycles
L1I RQ	ACCESS:    7351119	FORWARD:          0	MERGED:    2110559	TO_CACHE:    5240560

BTB TOTAL     ACCESS:    3778181  HIT:    2076825  MISS:    1701356  HIT %:    54.9689  MISS %:    45.0311   MPKI: 68.0542
BTB BRANCH_DIRECT_JUMP	ACCESS:     244177  HIT:     134391  MISS:     109786
BTB BRANCH_INDIRECT	ACCESS:    1595152  HIT:     946245  MISS:     648907
BTB BRANCH_CONDITIONAL	ACCESS:     709314  HIT:     533924  MISS:     175390
BTB BRANCH_DIRECT_CALL	ACCESS:     517997  HIT:     239318  MISS:     278679
BTB BRANCH_INDIRECT_CALL	ACCESS:      96762  HIT:      46211  MISS:      50551
BTB BRANCH_RETURN	ACCESS:     614779  HIT:     176736  MISS:     438043
BTB BRANCH_OTHER ACCESS:          0  HIT:          0  MISS:          0

L2C TOTAL     ACCESS:    1528815  HIT:    1524504  MISS:       4311  HIT %:     99.718  MISS %:   0.281983   MPKI: 0.17244
L2C LOAD      ACCESS:    1528653  HIT:    1524352  MISS:       4301  HIT %:    99.7186  MISS %:   0.281359   MPKI: 0.17204
L2C DATA LOAD MPKI: 0
L2C INSTRUCTION LOAD MPKI: 0.17204
L2C LOAD TRANSLATION ACCESS:        162  HIT:        152  MISS:         10  HIT %:    93.8272  MISS %:    6.17284   MPKI: 0.0004
L2C PREFETCH  REQUESTED:          0  ISSUED:          0  USEFUL:          0  USELESS:          0
L2C USEFUL LOAD PREFETCHES:          0 PREFETCH ISSUED TO LOWER LEVEL:          0  ACCURACY: -nan
L2C TIMELY PREFETCHES:          0 LATE PREFETCHES: 0 DROPPED PREFETCHES: 0
L2C PREFETCHES SAME FILL-ORIGIN LEVEL: 0 DIFFERENT FILL-ORIGIN LEVEL: 0
L2C AVERAGE MISS LATENCY: 30 cycles
L2C RQ	ACCESS:    1528817	FORWARD:          0	MERGED:          0	TO_CACHE:    1528817

L2C Instructions Evicting Data 0
L2C Translations Evicting Data 0
L2C Data Evicting Data 0
L2C Instructions Evicting Instructions 4291
L2C Translations Evicting Instructions 10
L2C Data Evicting Instructions 0
L2C Instructions Evicting Translations 10
L2C Translations Evicting Translations 0
L2C Data Evicting Translations 0
L2C Dense regions hint from L2: 0
PSCL5 TOTAL     ACCESS:        162  HIT:        162  MISS:          0  HIT %:        100  MISS %:          0   MPKI: 0
PSCL5 LOAD TRANSLATION ACCESS:        162  HIT:        162  MISS:          0  HIT %:        100  MISS %:          0   MPKI: 0
PSCL5 PREFETCH  REQUESTED:          0  ISSUED:          0  USEFUL:          0  USELESS:          0
PSCL5 USEFUL LOAD PREFETCHES:          0 PREFETCH ISSUED TO LOWER LEVEL:          0  ACCURACY: -nan
PSCL5 TIMELY PREFETCHES:          0 LATE PREFETCHES: 0 DROPPED PREFETCHES: 0
PSCL5 PREFETCHES SAME FILL-ORIGIN LEVEL: 0 DIFFERENT FILL-ORIGIN LEVEL: 0

PSCL4 TOTAL     ACCESS:        162  HIT:        162  MISS:          0  HIT %:        100  MISS %:          0   MPKI: 0
PSCL4 LOAD TRANSLATION ACCESS:        162  HIT:        162  MISS:          0  HIT %:        100  MISS %:          0   MPKI: 0
PSCL4 PREFETCH  REQUESTED:          0  ISSUED:          0  USEFUL:          0  USELESS:          0
PSCL4 USEFUL LOAD PREFETCHES:          0 PREFETCH ISSUED TO LOWER LEVEL:          0  ACCURACY: -nan
PSCL4 TIMELY PREFETCHES:          0 LATE PREFETCHES: 0 DROPPED PREFETCHES: 0
PSCL4 PREFETCHES SAME FILL-ORIGIN LEVEL: 0 DIFFERENT FILL-ORIGIN LEVEL: 0

PSCL3 TOTAL     ACCESS:        162  HIT:        162  MISS:          0  HIT %:        100  MISS %:          0   MPKI: 0
PSCL3 LOAD TRANSLATION ACCESS:        162  HIT:        162  MISS:          0  HIT %:        100  MISS %:          0   MPKI: 0
PSCL3 PREFETCH  REQUESTED:          0  ISSUED:          0  USEFUL:          0  USELESS:          0
PSCL3 USEFUL LOAD PREFETCHES:          0 PREFETCH ISSUED TO LOWER LEVEL:          0  ACCURACY: -nan
PSCL3 TIMELY PREFETCHES:          0 LATE PREFETCHES: 0 DROPPED PREFETCHES: 0
PSCL3 PREFETCHES SAME FILL-ORIGIN LEVEL: 0 DIFFERENT FILL-ORIGIN LEVEL: 0

PSCL2 TOTAL     ACCESS:        162  HIT:        162  MISS:          0  HIT %:        100  MISS %:          0   MPKI: 0
PSCL2 LOAD TRANSLATION ACCESS:        162  HIT:        162  MISS:          0  HIT %:        100  MISS %:          0   MPKI: 0
PSCL2 PREFETCH  REQUESTED:          0  ISSUED:          0  USEFUL:          0  USELESS:          0
PSCL2 USEFUL LOAD PREFETCHES:          0 PREFETCH ISSUED TO LOWER LEVEL:          0  ACCURACY: -nan
PSCL2 TIMELY PREFETCHES:          0 LATE PREFETCHES: 0 DROPPED PREFETCHES: 0
PSCL2 PREFETCHES SAME FILL-ORIGIN LEVEL: 0 DIFFERENT FILL-ORIGIN LEVEL: 0

LLC TOTAL     ACCESS:       4311  HIT:       4311  MISS:          0  HIT %:        100  MISS %:          0   MPKI: 0
LLC LOAD      ACCESS:       4301  HIT:       4301  MISS:          0  HIT %:        100  MISS %:          0   MPKI: 0
LLC LOAD TRANSLATION ACCESS:         10  HIT:         10  MISS:          0  HIT %:        100  MISS %:          0   MPKI: 0
LLC PREFETCH  REQUESTED:          0  ISSUED:          0  USEFUL:          0  USELESS:          0
LLC USEFUL LOAD PREFETCHES:          0 PREFETCH ISSUED TO LOWER LEVEL:          0  ACCURACY: -nan
LLC TIMELY PREFETCHES:          0 LATE PREFETCHES: 0 DROPPED PREFETCHES: 0
LLC PREFETCHES SAME FILL-ORIGIN LEVEL: 0 DIFFERENT FILL-ORIGIN LEVEL: 0
LLC AVERAGE MISS LATENCY: -nan cycles
LLC RQ	ACCESS:       4311	FORWARD:          0	MERGED:          0	TO_CACHE:       4311

LLC Dense regions hint to LLC: 0

RAW hits: 182342
Loads Generated: 6091231
Loads sent to L1D: 5908889
Stores Generated: 3503216
Stores sent to L1D: 3503232
Major fault: 0 Minor fault: 1251
Allocated PAGES: 1251

DRAM Statistics
 CHANNEL 0
 RQ ROW_BUFFER_HIT:          0  ROW_BUFFER_MISS:          0
 DBUS_CONGESTED:          0
 WQ ROW_BUFFER_HIT:          0  ROW_BUFFER_MISS:          0  FULL:          0

 AVG_CONGESTED_CYCLE: -
 All warmup complete: 2
Channel 0 Bank busy for read cycles: 0
Channel 0 Bank busy for write cycles: 0
Channel 0
Rank 0
0banks busy for read cycles: 79769650
0banks busy for write cycles: 0
1banks busy for read cycles: 0
1banks busy for write cycles: 0
2banks busy for read cycles: 0
2banks busy for write cycles: 0
3banks busy for read cycles: 0
3banks busy for write cycles: 0
4banks busy for read cycles: 0
4banks busy for write cycles: 0
5banks busy for read cycles: 0
5banks busy for write cycles: 0
6banks busy for read cycles: 0
6banks busy for write cycles: 0
7banks busy for read cycles: 0
7banks busy for write cycles: 0
8banks busy for read cycles: 0
8banks busy for write cycles: 0

CPU 0 Branch Prediction Accuracy: 99.8753% MPKI: 0.22136 Average ROB Occupancy at Mispredict: 20.4541
Branch types
NOT_BRANCH: 20561885 82.2475%
BRANCH_DIRECT_JUMP: 244177 0.976708%
BRANCH_INDIRECT: 1595152 6.38061%
BRANCH_CONDITIONAL: 1369084 5.47634%
BRANCH_DIRECT_CALL: 517997 2.07199%
BRANCH_INDIRECT_CALL: 96762 0.387048%
BRANCH_RETURN: 614779 2.45912%
BRANCH_OTHER: 0 0%

DRAM PAGES: 1048576
Allocated PAGES: 1251
