
*** ChampSim Multicore Out-of-Order Simulator ***

Warmup Instructions: 25000000
Simulation Instructions: 25000000
Number of CPUs: 1
LLC sets: 2048
LLC ways: 16
Off-chip DRAM Size: 4096 MB Channels: 1 Width: 64-bit Data Rate: 6400 MT/s
CPU 0 runs ../../traces/spec2k17/srv_2.champsimtrace.xz
.xz
BTB has LRU replacement policy
ITLB has LRU replacement policy
DTLB has LRU replacement policy
STLB has LRU replacement policy
L1I has LRU replacement policy
L1D has LRU replacement policy
Initialize SRRIP state for L2C
Initialize DRRIP state for LLC
Heartbeat CPU 0 instructions: 10000003 cycles: 2739451 heartbeat IPC: 3.65037 cumulative IPC: 3.65037 (Simulation time: 0 hr 10 min 36 sec) 
Heartbeat CPU 0 instructions: 20000002 cycles: 5470640 heartbeat IPC: 3.66141 cumulative IPC: 3.65588 (Simulation time: 0 hr 21 min 26 sec) 

Warmup complete CPU 0 instructions: 25000001 cycles: 6836696 (Simulation time: 0 hr 26 min 35 sec) 

Heartbeat CPU 0 instructions: 30000002 cycles: 16792636 heartbeat IPC: 0.883236 cumulative IPC: 0.502213 (Simulation time: 0 hr 33 min 24 sec) 
*** Reached end of trace for Core: 0 Repeating trace: ../../traces/spec2k17/srv_2.champsimtrace.xz
Heartbeat CPU 0 instructions: 40000003 cycles: 35665202 heartbeat IPC: 0.52987 cumulative IPC: 0.520318 (Simulation time: 0 hr 46 min 32 sec) 
Heartbeat CPU 0 instructions: 50000001 cycles: 54075460 heartbeat IPC: 0.543175 cumulative IPC: 0.529226 (Simulation time: 0 hr 56 min 58 sec) 
Finished CPU 0 instructions: 25000000 cycles: 47238764 cumulative IPC: 0.529226 (Simulation time: 0 hr 56 min 58 sec) 

ChampSim completed all CPUs

Region of Interest Statistics

CPU 0 cumulative IPC: 0.529226 instructions: 25000000 cycles: 47238764
ITLB TOTAL     ACCESS:    3909063  HIT:    3811565  MISS:      97498  HIT %:    97.5058  MISS %:    2.49415   MPKI: 3.89992
ITLB LOAD TRANSLATION ACCESS:    3909063  HIT:    3811565  MISS:      97498  HIT %:    97.5058  MISS %:    2.49415   MPKI: 3.89992
ITLB PREFETCH  REQUESTED:          0  ISSUED:          0  USEFUL:          0  USELESS:          0
ITLB USEFUL LOAD PREFETCHES:          0 PREFETCH ISSUED TO LOWER LEVEL:          0  ACCURACY: -nan
ITLB TIMELY PREFETCHES:          0 LATE PREFETCHES: 0 DROPPED PREFETCHES: 0
ITLB PREFETCHES SAME FILL-ORIGIN LEVEL: 0 DIFFERENT FILL-ORIGIN LEVEL: 0
ITLB AVERAGE MISS LATENCY: 12.8016 cycles
ITLB RQ	ACCESS:    4793459	FORWARD:          0	MERGED:     860129	TO_CACHE:    3933330

DTLB TOTAL     ACCESS:    4690356  HIT:    4364006  MISS:     326350  HIT %:    93.0421  MISS %:    6.95789   MPKI: 13.054
DTLB LOAD TRANSLATION ACCESS:    4690356  HIT:    4364006  MISS:     326350  HIT %:    93.0421  MISS %:    6.95789   MPKI: 13.054
DTLB PREFETCH  REQUESTED:          0  ISSUED:          0  USEFUL:          0  USELESS:          0
DTLB USEFUL LOAD PREFETCHES:          0 PREFETCH ISSUED TO LOWER LEVEL:          0  ACCURACY: -nan
DTLB TIMELY PREFETCHES:          0 LATE PREFETCHES: 0 DROPPED PREFETCHES: 0
DTLB PREFETCHES SAME FILL-ORIGIN LEVEL: 0 DIFFERENT FILL-ORIGIN LEVEL: 0
DTLB AVERAGE MISS LATENCY: 12.3062 cycles
DTLB RQ	ACCESS:    5986027	FORWARD:          0	MERGED:    1278256	TO_CACHE:    4707771

STLB TOTAL     ACCESS:     423848  HIT:     382076  MISS:      41772  HIT %:    90.1446  MISS %:    9.85542   MPKI: 1.67088
STLB LOAD TRANSLATION ACCESS:     423848  HIT:     382076  MISS:      41772  HIT %:    90.1446  MISS %:    9.85542   MPKI: 1.67088
STLB PREFETCH  REQUESTED:          0  ISSUED:          0  USEFUL:          0  USELESS:          0
STLB USEFUL LOAD PREFETCHES:          0 PREFETCH ISSUED TO LOWER LEVEL:          0  ACCURACY: -nan
STLB TIMELY PREFETCHES:          0 LATE PREFETCHES: 0 DROPPED PREFETCHES: 0
STLB PREFETCHES SAME FILL-ORIGIN LEVEL: 0 DIFFERENT FILL-ORIGIN LEVEL: 0
STLB AVERAGE MISS LATENCY: 34.4385 cycles
STLB RQ	ACCESS:     423848	FORWARD:          0	MERGED:          0	TO_CACHE:     423848

STLB Hit, L1D data hit: 0
STLB Hit, L2C data hit: 0
STLB Hit, LLC data hit: 0
STLB Hit, LLC data miss: 0
STLB STLB hints to L2: 0
L1D TOTAL     ACCESS:    5986026  HIT:    5986026  MISS:          0  HIT %:        100  MISS %:          0   MPKI: 0
L1D LOAD      ACCESS:    3489321  HIT:    3489321  MISS:          0  HIT %:        100  MISS %:          0   MPKI: 0
L1D RFO       ACCESS:    2496705  HIT:    2496705  MISS:          0  HIT %:        100  MISS %:          0   MPKI: 0
L1D PREFETCH  REQUESTED:          0  ISSUED:          0  USEFUL:          0  USELESS:          0
L1D USEFUL LOAD PREFETCHES:          0 PREFETCH ISSUED TO LOWER LEVEL:          0  ACCURACY: -nan
L1D TIMELY PREFETCHES:          0 LATE PREFETCHES: 0 DROPPED PREFETCHES: 0
L1D PREFETCHES SAME FILL-ORIGIN LEVEL: 0 DIFFERENT FILL-ORIGIN LEVEL: 0
L1D AVERAGE MISS LATENCY: -nan cycles
L1D RQ	ACCESS:    5306261	FORWARD:          0	MERGED:    1785056	TO_CACHE:    3489322
L1D WQ	ACCESS:    2528293	FORWARD:      31883	MERGED:      31588	TO_CACHE:    2496705

L1D UNIQUE REGIONS ACCESSED: 0
L1D REGIONS CONFLICTS: 0
L1D Cross Page Prefetch Requests: 0
L1D Same Page Prefetch Requests: 0
L1D ROI Sum of L1D PQ occupancy: 0
L1D PREFETCHES PUSHED FROM L2C: 0
L1I TOTAL     ACCESS:    4568988  HIT:    3923869  MISS:     645119  HIT %:    85.8805  MISS %:    14.1195   MPKI: 25.8048
L1I LOAD      ACCESS:    4568988  HIT:    3923869  MISS:     645119  HIT %:    85.8805  MISS %:    14.1195   MPKI: 25.8048
L1I PREFETCH  REQUESTED:          0  ISSUED:          0  USEFUL:          0  USELESS:          0
L1I USEFUL LOAD PREFETCHES:          0 PREFETCH ISSUED TO LOWER LEVEL:          0  ACCURACY: -nan
L1I TIMELY PREFETCHES:          0 LATE PREFETCHES: 0 DROPPED PREFETCHES: 0
L1I PREFETCHES SAME FILL-ORIGIN LEVEL: 0 DIFFERENT FILL-ORIGIN LEVEL: 0
L1I AVERAGE MISS LATENCY: 17.9239 cycles
L1I RQ	ACCESS:    7141442	FORWARD:          0	MERGED:    2347983	TO_CACHE:    4793459

BTB TOTAL     ACCESS:    2751874  HIT:    2202429  MISS:     549445  HIT %:    80.0338  MISS %:    19.9662   MPKI: 21.9778
BTB BRANCH_DIRECT_JUMP	ACCESS:     217616  HIT:     186891  MISS:      30725
BTB BRANCH_INDIRECT	ACCESS:    1175877  HIT:     907968  MISS:     267909
BTB BRANCH_CONDITIONAL	ACCESS:     572404  HIT:     521800  MISS:      50604
BTB BRANCH_DIRECT_CALL	ACCESS:     309147  HIT:     248781  MISS:      60366
BTB BRANCH_INDIRECT_CALL	ACCESS:      83773  HIT:      78692  MISS:       5081
BTB BRANCH_RETURN	ACCESS:     393057  HIT:     258297  MISS:     134760
BTB BRANCH_OTHER ACCESS:          0  HIT:          0  MISS:          0

L2C TOTAL     ACCESS:     700317  HIT:     616268  MISS:      84049  HIT %:    87.9984  MISS %:    12.0016   MPKI: 3.36196
L2C LOAD      ACCESS:     645119  HIT:     571127  MISS:      73992  HIT %:    88.5305  MISS %:    11.4695   MPKI: 2.95968
L2C DATA LOAD MPKI: 0
L2C INSTRUCTION LOAD MPKI: 2.95968
L2C LOAD TRANSLATION ACCESS:      55198  HIT:      45141  MISS:      10057  HIT %:    81.7801  MISS %:    18.2199   MPKI: 0.40228
L2C PREFETCH  REQUESTED:          0  ISSUED:          0  USEFUL:          0  USELESS:          0
L2C USEFUL LOAD PREFETCHES:          0 PREFETCH ISSUED TO LOWER LEVEL:          0  ACCURACY: -nan
L2C TIMELY PREFETCHES:          0 LATE PREFETCHES: 0 DROPPED PREFETCHES: 0
L2C PREFETCHES SAME FILL-ORIGIN LEVEL: 0 DIFFERENT FILL-ORIGIN LEVEL: 0
L2C AVERAGE MISS LATENCY: 34.1555 cycles
L2C RQ	ACCESS:     700317	FORWARD:          0	MERGED:          0	TO_CACHE:     700317

L2C Instructions Evicting Data 0
L2C Translations Evicting Data 0
L2C Data Evicting Data 0
L2C Instructions Evicting Instructions 65473
L2C Translations Evicting Instructions 8415
L2C Data Evicting Instructions 0
L2C Instructions Evicting Translations 8378
L2C Translations Evicting Translations 1624
L2C Data Evicting Translations 0
L2C Dense regions hint from L2: 0
PSCL5 TOTAL     ACCESS:      41772  HIT:      41772  MISS:          0  HIT %:        100  MISS %:          0   MPKI: 0
PSCL5 LOAD TRANSLATION ACCESS:      41772  HIT:      41772  MISS:          0  HIT %:        100  MISS %:          0   MPKI: 0
PSCL5 PREFETCH  REQUESTED:          0  ISSUED:          0  USEFUL:          0  USELESS:          0
PSCL5 USEFUL LOAD PREFETCHES:          0 PREFETCH ISSUED TO LOWER LEVEL:          0  ACCURACY: -nan
PSCL5 TIMELY PREFETCHES:          0 LATE PREFETCHES: 0 DROPPED PREFETCHES: 0
PSCL5 PREFETCHES SAME FILL-ORIGIN LEVEL: 0 DIFFERENT FILL-ORIGIN LEVEL: 0

PSCL4 TOTAL     ACCESS:      39608  HIT:      39560  MISS:         48  HIT %:    99.8788  MISS %:   0.121188   MPKI: 0.00192
PSCL4 LOAD TRANSLATION ACCESS:      39608  HIT:      39560  MISS:         48  HIT %:    99.8788  MISS %:   0.121188   MPKI: 0.00192
PSCL4 PREFETCH  REQUESTED:          0  ISSUED:          0  USEFUL:          0  USELESS:          0
PSCL4 USEFUL LOAD PREFETCHES:          0 PREFETCH ISSUED TO LOWER LEVEL:          0  ACCURACY: -nan
PSCL4 TIMELY PREFETCHES:          0 LATE PREFETCHES: 0 DROPPED PREFETCHES: 0
PSCL4 PREFETCHES SAME FILL-ORIGIN LEVEL: 0 DIFFERENT FILL-ORIGIN LEVEL: 0

PSCL3 TOTAL     ACCESS:      41659  HIT:      41564  MISS:         95  HIT %:     99.772  MISS %:   0.228042   MPKI: 0.0038
PSCL3 LOAD TRANSLATION ACCESS:      41659  HIT:      41564  MISS:         95  HIT %:     99.772  MISS %:   0.228042   MPKI: 0.0038
PSCL3 PREFETCH  REQUESTED:          0  ISSUED:          0  USEFUL:          0  USELESS:          0
PSCL3 USEFUL LOAD PREFETCHES:          0 PREFETCH ISSUED TO LOWER LEVEL:          0  ACCURACY: -nan
PSCL3 TIMELY PREFETCHES:          0 LATE PREFETCHES: 0 DROPPED PREFETCHES: 0
PSCL3 PREFETCHES SAME FILL-ORIGIN LEVEL: 0 DIFFERENT FILL-ORIGIN LEVEL: 0

PSCL2 TOTAL     ACCESS:      41772  HIT:      28481  MISS:      13291  HIT %:     68.182  MISS %:     31.818   MPKI: 0.53164
PSCL2 LOAD TRANSLATION ACCESS:      41772  HIT:      28481  MISS:      13291  HIT %:     68.182  MISS %:     31.818   MPKI: 0.53164
PSCL2 PREFETCH  REQUESTED:          0  ISSUED:          0  USEFUL:          0  USELESS:          0
PSCL2 USEFUL LOAD PREFETCHES:          0 PREFETCH ISSUED TO LOWER LEVEL:          0  ACCURACY: -nan
PSCL2 TIMELY PREFETCHES:          0 LATE PREFETCHES: 0 DROPPED PREFETCHES: 0
PSCL2 PREFETCHES SAME FILL-ORIGIN LEVEL: 0 DIFFERENT FILL-ORIGIN LEVEL: 0

LLC TOTAL     ACCESS:      84049  HIT:      81329  MISS:       2720  HIT %:    96.7638  MISS %:    3.23621   MPKI: 0.1088
LLC LOAD      ACCESS:      73992  HIT:      71743  MISS:       2249  HIT %:    96.9605  MISS %:    3.03952   MPKI: 0.08996
LLC LOAD TRANSLATION ACCESS:      10057  HIT:       9586  MISS:        471  HIT %:    95.3167  MISS %:    4.68331   MPKI: 0.01884
LLC PREFETCH  REQUESTED:          0  ISSUED:          0  USEFUL:          0  USELESS:          0
LLC USEFUL LOAD PREFETCHES:          0 PREFETCH ISSUED TO LOWER LEVEL:          0  ACCURACY: -nan
LLC TIMELY PREFETCHES:          0 LATE PREFETCHES: 0 DROPPED PREFETCHES: 0
LLC PREFETCHES SAME FILL-ORIGIN LEVEL: 0 DIFFERENT FILL-ORIGIN LEVEL: 0
LLC AVERAGE MISS LATENCY: 127.583 cycles
LLC RQ	ACCESS:      84049	FORWARD:          0	MERGED:          0	TO_CACHE:      84049

LLC Dense regions hint to LLC: 0

RAW hits: 302186
Loads Generated: 5608447
Loads sent to L1D: 5306261
Stores Generated: 2528282
Stores sent to L1D: 2528293
Major fault: 0 Minor fault: 6527
Allocated PAGES: 6527

DRAM Statistics
 CHANNEL 0
 RQ ROW_BUFFER_HIT:       1159  ROW_BUFFER_MISS:       1561
 DBUS_CONGESTED:          0
 WQ ROW_BUFFER_HIT:          0  ROW_BUFFER_MISS:          0  FULL:          0

 AVG_CONGESTED_CYCLE: -
 All warmup complete: 2
Channel 0 Bank busy for read cycles: 0
Channel 0 Bank busy for write cycles: 0
Channel 0
Rank 0
0banks busy for read cycles: 46959525
0banks busy for write cycles: 0
1banks busy for read cycles: 266671
1banks busy for write cycles: 0
2banks busy for read cycles: 12278
2banks busy for write cycles: 0
3banks busy for read cycles: 291
3banks busy for write cycles: 0
4banks busy for read cycles: 0
4banks busy for write cycles: 0
5banks busy for read cycles: 0
5banks busy for write cycles: 0
6banks busy for read cycles: 0
6banks busy for write cycles: 0
7banks busy for read cycles: 0
7banks busy for write cycles: 0
8banks busy for read cycles: 0
8banks busy for write cycles: 0

CPU 0 Branch Prediction Accuracy: 99.6049% MPKI: 0.70504 Average ROB Occupancy at Mispredict: 17.5655
Branch types
NOT_BRANCH: 20538238 82.153%
BRANCH_DIRECT_JUMP: 217616 0.870464%
BRANCH_INDIRECT: 1175877 4.70351%
BRANCH_CONDITIONAL: 2282044 9.12818%
BRANCH_DIRECT_CALL: 309147 1.23659%
BRANCH_INDIRECT_CALL: 83773 0.335092%
BRANCH_RETURN: 393057 1.57223%
BRANCH_OTHER: 0 0%

DRAM PAGES: 1048576
Allocated PAGES: 6527
