
*** ChampSim Multicore Out-of-Order Simulator ***

Warmup Instructions: 25000000
Simulation Instructions: 25000000
Number of CPUs: 1
LLC sets: 2048
LLC ways: 16
Off-chip DRAM Size: 4096 MB Channels: 1 Width: 64-bit Data Rate: 6400 MT/s
CPU 0 runs ../../traces/spec2k17/srv_15.champsimtrace.xz
.xz
BTB has LRU replacement policy
ITLB has LRU replacement policy
DTLB has LRU replacement policy
STLB has LRU replacement policy
L1I has LRU replacement policy
L1D has LRU replacement policy
Initialize SRRIP state for L2C
Initialize DRRIP state for LLC
Heartbeat CPU 0 instructions: 10000002 cycles: 2826336 heartbeat IPC: 3.53815 cumulative IPC: 3.53815 (Simulation time: 0 hr 9 min 17 sec) 
Heartbeat CPU 0 instructions: 20000001 cycles: 5642265 heartbeat IPC: 3.55123 cumulative IPC: 3.54468 (Simulation time: 0 hr 18 min 59 sec) 

Warmup complete CPU 0 instructions: 25000001 cycles: 7051773 (Simulation time: 0 hr 23 min 55 sec) 

Heartbeat CPU 0 instructions: 30000000 cycles: 22097785 heartbeat IPC: 0.607699 cumulative IPC: 0.332314 (Simulation time: 0 hr 31 min 27 sec) 
*** Reached end of trace for Core: 0 Repeating trace: ../../traces/spec2k17/srv_15.champsimtrace.xz
Heartbeat CPU 0 instructions: 40000000 cycles: 52310896 heartbeat IPC: 0.330982 cumulative IPC: 0.331425 (Simulation time: 0 hr 45 min 48 sec) 
Heartbeat CPU 0 instructions: 50000001 cycles: 82245717 heartbeat IPC: 0.334059 cumulative IPC: 0.332474 (Simulation time: 0 hr 57 min 5 sec) 
Finished CPU 0 instructions: 25000000 cycles: 75193944 cumulative IPC: 0.332474 (Simulation time: 0 hr 57 min 5 sec) 

ChampSim completed all CPUs

Region of Interest Statistics

CPU 0 cumulative IPC: 0.332474 instructions: 25000000 cycles: 75193944
ITLB TOTAL     ACCESS:    4455757  HIT:    4174707  MISS:     281050  HIT %:    93.6924  MISS %:    6.30757   MPKI: 11.242
ITLB LOAD TRANSLATION ACCESS:    4455757  HIT:    4174707  MISS:     281050  HIT %:    93.6924  MISS %:    6.30757   MPKI: 11.242
ITLB PREFETCH  REQUESTED:          0  ISSUED:          0  USEFUL:          0  USELESS:          0
ITLB USEFUL LOAD PREFETCHES:          0 PREFETCH ISSUED TO LOWER LEVEL:          0  ACCURACY: -nan
ITLB TIMELY PREFETCHES:          0 LATE PREFETCHES: 0 DROPPED PREFETCHES: 0
ITLB PREFETCHES SAME FILL-ORIGIN LEVEL: 0 DIFFERENT FILL-ORIGIN LEVEL: 0
ITLB AVERAGE MISS LATENCY: 9.14376 cycles
ITLB RQ	ACCESS:    5233837	FORWARD:          0	MERGED:     710061	TO_CACHE:    4523776

DTLB TOTAL     ACCESS:    5728945  HIT:    5475203  MISS:     253742  HIT %:    95.5709  MISS %:    4.42912   MPKI: 10.1497
DTLB LOAD TRANSLATION ACCESS:    5728945  HIT:    5475203  MISS:     253742  HIT %:    95.5709  MISS %:    4.42912   MPKI: 10.1497
DTLB PREFETCH  REQUESTED:          0  ISSUED:          0  USEFUL:          0  USELESS:          0
DTLB USEFUL LOAD PREFETCHES:          0 PREFETCH ISSUED TO LOWER LEVEL:          0  ACCURACY: -nan
DTLB TIMELY PREFETCHES:          0 LATE PREFETCHES: 0 DROPPED PREFETCHES: 0
DTLB PREFETCHES SAME FILL-ORIGIN LEVEL: 0 DIFFERENT FILL-ORIGIN LEVEL: 0
DTLB AVERAGE MISS LATENCY: 9.20826 cycles
DTLB RQ	ACCESS:    7573027	FORWARD:          0	MERGED:    1836364	TO_CACHE:    5736663

STLB TOTAL     ACCESS:     534792  HIT:     531002  MISS:       3790  HIT %:    99.2913  MISS %:   0.708687   MPKI: 0.1516
STLB LOAD TRANSLATION ACCESS:     534792  HIT:     531002  MISS:       3790  HIT %:    99.2913  MISS %:   0.708687   MPKI: 0.1516
STLB PREFETCH  REQUESTED:          0  ISSUED:          0  USEFUL:          0  USELESS:          0
STLB USEFUL LOAD PREFETCHES:          0 PREFETCH ISSUED TO LOWER LEVEL:          0  ACCURACY: -nan
STLB TIMELY PREFETCHES:          0 LATE PREFETCHES: 0 DROPPED PREFETCHES: 0
STLB PREFETCHES SAME FILL-ORIGIN LEVEL: 0 DIFFERENT FILL-ORIGIN LEVEL: 0
STLB AVERAGE MISS LATENCY: 23.6237 cycles
STLB RQ	ACCESS:     534792	FORWARD:          0	MERGED:          0	TO_CACHE:     534792

STLB Hit, L1D data hit: 0
STLB Hit, L2C data hit: 0
STLB Hit, LLC data hit: 0
STLB Hit, LLC data miss: 0
STLB STLB hints to L2: 0
L1D TOTAL     ACCESS:    7573027  HIT:    7573027  MISS:          0  HIT %:        100  MISS %:          0   MPKI: 0
L1D LOAD      ACCESS:    4268369  HIT:    4268369  MISS:          0  HIT %:        100  MISS %:          0   MPKI: 0
L1D RFO       ACCESS:    3304658  HIT:    3304658  MISS:          0  HIT %:        100  MISS %:          0   MPKI: 0
L1D PREFETCH  REQUESTED:          0  ISSUED:          0  USEFUL:          0  USELESS:          0
L1D USEFUL LOAD PREFETCHES:          0 PREFETCH ISSUED TO LOWER LEVEL:          0  ACCURACY: -nan
L1D TIMELY PREFETCHES:          0 LATE PREFETCHES: 0 DROPPED PREFETCHES: 0
L1D PREFETCHES SAME FILL-ORIGIN LEVEL: 0 DIFFERENT FILL-ORIGIN LEVEL: 0
L1D AVERAGE MISS LATENCY: -nan cycles
L1D RQ	ACCESS:    5821843	FORWARD:          0	MERGED:    1511783	TO_CACHE:    4268369
L1D WQ	ACCESS:    3321172	FORWARD:      41691	MERGED:      16514	TO_CACHE:    3304658

L1D UNIQUE REGIONS ACCESSED: 0
L1D REGIONS CONFLICTS: 0
L1D Cross Page Prefetch Requests: 0
L1D Same Page Prefetch Requests: 0
L1D ROI Sum of L1D PQ occupancy: 0
L1D PREFETCHES PUSHED FROM L2C: 0
L1I TOTAL     ACCESS:    5024206  HIT:    3596672  MISS:    1427534  HIT %:    71.5869  MISS %:    28.4131   MPKI: 57.1014
L1I LOAD      ACCESS:    5024206  HIT:    3596672  MISS:    1427534  HIT %:    71.5869  MISS %:    28.4131   MPKI: 57.1014
L1I PREFETCH  REQUESTED:          0  ISSUED:          0  USEFUL:          0  USELESS:          0
L1I USEFUL LOAD PREFETCHES:          0 PREFETCH ISSUED TO LOWER LEVEL:          0  ACCURACY: -nan
L1I TIMELY PREFETCHES:          0 LATE PREFETCHES: 0 DROPPED PREFETCHES: 0
L1I PREFETCHES SAME FILL-ORIGIN LEVEL: 0 DIFFERENT FILL-ORIGIN LEVEL: 0
L1I AVERAGE MISS LATENCY: 14.1785 cycles
L1I RQ	ACCESS:    7319936	FORWARD:          0	MERGED:    2086099	TO_CACHE:    5233837

BTB TOTAL     ACCESS:    3838264  HIT:    2304950  MISS:    1533314  HIT %:    60.0519  MISS %:    39.9481   MPKI: 61.3326
BTB BRANCH_DIRECT_JUMP	ACCESS:     235100  HIT:     135238  MISS:      99862
BTB BRANCH_INDIRECT	ACCESS:    1518635  HIT:     934173  MISS:     584462
BTB BRANCH_CONDITIONAL	ACCESS:     938978  HIT:     783455  MISS:     155523
BTB BRANCH_DIRECT_CALL	ACCESS:     483270  HIT:     235488  MISS:     247782
BTB BRANCH_INDIRECT_CALL	ACCESS:      89498  HIT:      43622  MISS:      45876
BTB BRANCH_RETURN	ACCESS:     572783  HIT:     172974  MISS:     399809
BTB BRANCH_OTHER ACCESS:          0  HIT:          0  MISS:          0

L2C TOTAL     ACCESS:    1431476  HIT:    1427203  MISS:       4273  HIT %:    99.7015  MISS %:   0.298503   MPKI: 0.17092
L2C LOAD      ACCESS:    1427534  HIT:    1423397  MISS:       4137  HIT %:    99.7102  MISS %:     0.2898   MPKI: 0.16548
L2C DATA LOAD MPKI: 0
L2C INSTRUCTION LOAD MPKI: 0.16548
L2C LOAD TRANSLATION ACCESS:       3942  HIT:       3806  MISS:        136  HIT %:      96.55  MISS %:    3.45003   MPKI: 0.00544
L2C PREFETCH  REQUESTED:          0  ISSUED:          0  USEFUL:          0  USELESS:          0
L2C USEFUL LOAD PREFETCHES:          0 PREFETCH ISSUED TO LOWER LEVEL:          0  ACCURACY: -nan
L2C TIMELY PREFETCHES:          0 LATE PREFETCHES: 0 DROPPED PREFETCHES: 0
L2C PREFETCHES SAME FILL-ORIGIN LEVEL: 0 DIFFERENT FILL-ORIGIN LEVEL: 0
L2C AVERAGE MISS LATENCY: 36.6932 cycles
L2C RQ	ACCESS:    1431476	FORWARD:          0	MERGED:          0	TO_CACHE:    1431476

L2C Instructions Evicting Data 0
L2C Translations Evicting Data 0
L2C Data Evicting Data 0
L2C Instructions Evicting Instructions 3878
L2C Translations Evicting Instructions 106
L2C Data Evicting Instructions 0
L2C Instructions Evicting Translations 116
L2C Translations Evicting Translations 11
L2C Data Evicting Translations 0
L2C Dense regions hint from L2: 0
PSCL5 TOTAL     ACCESS:       3790  HIT:       3790  MISS:          0  HIT %:        100  MISS %:          0   MPKI: 0
PSCL5 LOAD TRANSLATION ACCESS:       3790  HIT:       3790  MISS:          0  HIT %:        100  MISS %:          0   MPKI: 0
PSCL5 PREFETCH  REQUESTED:          0  ISSUED:          0  USEFUL:          0  USELESS:          0
PSCL5 USEFUL LOAD PREFETCHES:          0 PREFETCH ISSUED TO LOWER LEVEL:          0  ACCURACY: -nan
PSCL5 TIMELY PREFETCHES:          0 LATE PREFETCHES: 0 DROPPED PREFETCHES: 0
PSCL5 PREFETCHES SAME FILL-ORIGIN LEVEL: 0 DIFFERENT FILL-ORIGIN LEVEL: 0

PSCL4 TOTAL     ACCESS:       3407  HIT:       3392  MISS:         15  HIT %:    99.5597  MISS %:    0.44027   MPKI: 0.0006
PSCL4 LOAD TRANSLATION ACCESS:       3407  HIT:       3392  MISS:         15  HIT %:    99.5597  MISS %:    0.44027   MPKI: 0.0006
PSCL4 PREFETCH  REQUESTED:          0  ISSUED:          0  USEFUL:          0  USELESS:          0
PSCL4 USEFUL LOAD PREFETCHES:          0 PREFETCH ISSUED TO LOWER LEVEL:          0  ACCURACY: -nan
PSCL4 TIMELY PREFETCHES:          0 LATE PREFETCHES: 0 DROPPED PREFETCHES: 0
PSCL4 PREFETCHES SAME FILL-ORIGIN LEVEL: 0 DIFFERENT FILL-ORIGIN LEVEL: 0

PSCL3 TOTAL     ACCESS:       3635  HIT:       3620  MISS:         15  HIT %:    99.5873  MISS %:   0.412655   MPKI: 0.0006
PSCL3 LOAD TRANSLATION ACCESS:       3635  HIT:       3620  MISS:         15  HIT %:    99.5873  MISS %:   0.412655   MPKI: 0.0006
PSCL3 PREFETCH  REQUESTED:          0  ISSUED:          0  USEFUL:          0  USELESS:          0
PSCL3 USEFUL LOAD PREFETCHES:          0 PREFETCH ISSUED TO LOWER LEVEL:          0  ACCURACY: -nan
PSCL3 TIMELY PREFETCHES:          0 LATE PREFETCHES: 0 DROPPED PREFETCHES: 0
PSCL3 PREFETCHES SAME FILL-ORIGIN LEVEL: 0 DIFFERENT FILL-ORIGIN LEVEL: 0

PSCL2 TOTAL     ACCESS:       3790  HIT:       3666  MISS:        124  HIT %:    96.7282  MISS %:    3.27177   MPKI: 0.00496
PSCL2 LOAD TRANSLATION ACCESS:       3790  HIT:       3666  MISS:        124  HIT %:    96.7282  MISS %:    3.27177   MPKI: 0.00496
PSCL2 PREFETCH  REQUESTED:          0  ISSUED:          0  USEFUL:          0  USELESS:          0
PSCL2 USEFUL LOAD PREFETCHES:          0 PREFETCH ISSUED TO LOWER LEVEL:          0  ACCURACY: -nan
PSCL2 TIMELY PREFETCHES:          0 LATE PREFETCHES: 0 DROPPED PREFETCHES: 0
PSCL2 PREFETCHES SAME FILL-ORIGIN LEVEL: 0 DIFFERENT FILL-ORIGIN LEVEL: 0

LLC TOTAL     ACCESS:       4273  HIT:       4083  MISS:        190  HIT %:    95.5535  MISS %:    4.44652   MPKI: 0.0076
LLC LOAD      ACCESS:       4137  HIT:       3968  MISS:        169  HIT %:    95.9149  MISS %:    4.08509   MPKI: 0.00676
LLC LOAD TRANSLATION ACCESS:        136  HIT:        115  MISS:         21  HIT %:    84.5588  MISS %:    15.4412   MPKI: 0.00084
LLC PREFETCH  REQUESTED:          0  ISSUED:          0  USEFUL:          0  USELESS:          0
LLC USEFUL LOAD PREFETCHES:          0 PREFETCH ISSUED TO LOWER LEVEL:          0  ACCURACY: -nan
LLC TIMELY PREFETCHES:          0 LATE PREFETCHES: 0 DROPPED PREFETCHES: 0
LLC PREFETCHES SAME FILL-ORIGIN LEVEL: 0 DIFFERENT FILL-ORIGIN LEVEL: 0
LLC AVERAGE MISS LATENCY: 150.526 cycles
LLC RQ	ACCESS:       4273	FORWARD:          0	MERGED:          0	TO_CACHE:       4273

LLC Dense regions hint to LLC: 0

RAW hits: 174219
Loads Generated: 5996063
Loads sent to L1D: 5821843
Stores Generated: 3321159
Stores sent to L1D: 3321172
Major fault: 0 Minor fault: 1825
Allocated PAGES: 1825

DRAM Statistics
 CHANNEL 0
 RQ ROW_BUFFER_HIT:         37  ROW_BUFFER_MISS:        153
 DBUS_CONGESTED:          0
 WQ ROW_BUFFER_HIT:          0  ROW_BUFFER_MISS:          0  FULL:          0

 AVG_CONGESTED_CYCLE: -
 All warmup complete: 2
Channel 0 Bank busy for read cycles: 0
Channel 0 Bank busy for write cycles: 0
Channel 0
Rank 0
0banks busy for read cycles: 75171964
0banks busy for write cycles: 0
1banks busy for read cycles: 19162
1banks busy for write cycles: 0
2banks busy for read cycles: 2819
2banks busy for write cycles: 0
3banks busy for read cycles: 0
3banks busy for write cycles: 0
4banks busy for read cycles: 0
4banks busy for write cycles: 0
5banks busy for read cycles: 0
5banks busy for write cycles: 0
6banks busy for read cycles: 0
6banks busy for write cycles: 0
7banks busy for read cycles: 0
7banks busy for write cycles: 0
8banks busy for read cycles: 0
8banks busy for write cycles: 0

CPU 0 Branch Prediction Accuracy: 99.8349% MPKI: 0.29796 Average ROB Occupancy at Mispredict: 18.9078
Branch types
NOT_BRANCH: 20489400 81.9576%
BRANCH_DIRECT_JUMP: 235100 0.9404%
BRANCH_INDIRECT: 1518635 6.07454%
BRANCH_CONDITIONAL: 1611164 6.44466%
BRANCH_DIRECT_CALL: 483270 1.93308%
BRANCH_INDIRECT_CALL: 89498 0.357992%
BRANCH_RETURN: 572783 2.29113%
BRANCH_OTHER: 0 0%

DRAM PAGES: 1048576
Allocated PAGES: 1825
