
*** ChampSim Multicore Out-of-Order Simulator ***

Warmup Instructions: 25000000
Simulation Instructions: 25000000
Number of CPUs: 1
LLC sets: 2048
LLC ways: 16
Off-chip DRAM Size: 4096 MB Channels: 1 Width: 64-bit Data Rate: 6400 MT/s
CPU 0 runs ../../traces/spec2k17/srv_70.champsimtrace.xz
.xz
BTB has LRU replacement policy
ITLB has LRU replacement policy
DTLB has LRU replacement policy
STLB has LRU replacement policy
L1I has LRU replacement policy
L1D has LRU replacement policy
Initialize SRRIP state for L2C
Initialize DRRIP state for LLC
Heartbeat CPU 0 instructions: 10000000 cycles: 2784478 heartbeat IPC: 3.59134 cumulative IPC: 3.59134 (Simulation time: 0 hr 10 min 28 sec) 
Heartbeat CPU 0 instructions: 20000000 cycles: 5566386 heartbeat IPC: 3.59466 cumulative IPC: 3.593 (Simulation time: 0 hr 20 min 52 sec) 

Warmup complete CPU 0 instructions: 25000001 cycles: 6958675 (Simulation time: 0 hr 25 min 57 sec) 

Heartbeat CPU 0 instructions: 30000003 cycles: 21010525 heartbeat IPC: 0.647495 cumulative IPC: 0.355825 (Simulation time: 0 hr 33 min 14 sec) 
*** Reached end of trace for Core: 0 Repeating trace: ../../traces/spec2k17/srv_70.champsimtrace.xz
Heartbeat CPU 0 instructions: 40000003 cycles: 48780042 heartbeat IPC: 0.360107 cumulative IPC: 0.358668 (Simulation time: 0 hr 47 min 32 sec) 
Heartbeat CPU 0 instructions: 50000000 cycles: 76619631 heartbeat IPC: 0.359201 cumulative IPC: 0.358881 (Simulation time: 0 hr 57 min 48 sec) 
Finished CPU 0 instructions: 25000001 cycles: 69660978 cumulative IPC: 0.358881 (Simulation time: 0 hr 57 min 48 sec) 

ChampSim completed all CPUs

Region of Interest Statistics

CPU 0 cumulative IPC: 0.358881 instructions: 25000001 cycles: 69660978
ITLB TOTAL     ACCESS:    4297055  HIT:    4067306  MISS:     229749  HIT %:    94.6533  MISS %:    5.34666   MPKI: 9.18996
ITLB LOAD TRANSLATION ACCESS:    4297055  HIT:    4067306  MISS:     229749  HIT %:    94.6533  MISS %:    5.34666   MPKI: 9.18996
ITLB PREFETCH  REQUESTED:          0  ISSUED:          0  USEFUL:          0  USELESS:          0
ITLB USEFUL LOAD PREFETCHES:          0 PREFETCH ISSUED TO LOWER LEVEL:          0  ACCURACY: -nan
ITLB TIMELY PREFETCHES:          0 LATE PREFETCHES: 0 DROPPED PREFETCHES: 0
ITLB PREFETCHES SAME FILL-ORIGIN LEVEL: 0 DIFFERENT FILL-ORIGIN LEVEL: 0
ITLB AVERAGE MISS LATENCY: 9.02642 cycles
ITLB RQ	ACCESS:    5022428	FORWARD:          0	MERGED:     670059	TO_CACHE:    4352369

DTLB TOTAL     ACCESS:    5685234  HIT:    5462861  MISS:     222373  HIT %:    96.0886  MISS %:    3.91141   MPKI: 8.89492
DTLB LOAD TRANSLATION ACCESS:    5685234  HIT:    5462861  MISS:     222373  HIT %:    96.0886  MISS %:    3.91141   MPKI: 8.89492
DTLB PREFETCH  REQUESTED:          0  ISSUED:          0  USEFUL:          0  USELESS:          0
DTLB USEFUL LOAD PREFETCHES:          0 PREFETCH ISSUED TO LOWER LEVEL:          0  ACCURACY: -nan
DTLB TIMELY PREFETCHES:          0 LATE PREFETCHES: 0 DROPPED PREFETCHES: 0
DTLB PREFETCHES SAME FILL-ORIGIN LEVEL: 0 DIFFERENT FILL-ORIGIN LEVEL: 0
DTLB AVERAGE MISS LATENCY: 9.15209 cycles
DTLB RQ	ACCESS:    7488919	FORWARD:          0	MERGED:    1796167	TO_CACHE:    5692752

STLB TOTAL     ACCESS:     452122  HIT:     450834  MISS:       1288  HIT %:    99.7151  MISS %:   0.284879   MPKI: 0.05152
STLB LOAD TRANSLATION ACCESS:     452122  HIT:     450834  MISS:       1288  HIT %:    99.7151  MISS %:   0.284879   MPKI: 0.05152
STLB PREFETCH  REQUESTED:          0  ISSUED:          0  USEFUL:          0  USELESS:          0
STLB USEFUL LOAD PREFETCHES:          0 PREFETCH ISSUED TO LOWER LEVEL:          0  ACCURACY: -nan
STLB TIMELY PREFETCHES:          0 LATE PREFETCHES: 0 DROPPED PREFETCHES: 0
STLB PREFETCHES SAME FILL-ORIGIN LEVEL: 0 DIFFERENT FILL-ORIGIN LEVEL: 0
STLB AVERAGE MISS LATENCY: 28.6095 cycles
STLB RQ	ACCESS:     452122	FORWARD:          0	MERGED:          0	TO_CACHE:     452122

STLB Hit, L1D data hit: 0
STLB Hit, L2C data hit: 0
STLB Hit, LLC data hit: 0
STLB Hit, LLC data miss: 0
STLB STLB hints to L2: 0
L1D TOTAL     ACCESS:    7488919  HIT:    7488919  MISS:          0  HIT %:        100  MISS %:          0   MPKI: 0
L1D LOAD      ACCESS:    4222309  HIT:    4222309  MISS:          0  HIT %:        100  MISS %:          0   MPKI: 0
L1D RFO       ACCESS:    3266610  HIT:    3266610  MISS:          0  HIT %:        100  MISS %:          0   MPKI: 0
L1D PREFETCH  REQUESTED:          0  ISSUED:          0  USEFUL:          0  USELESS:          0
L1D USEFUL LOAD PREFETCHES:          0 PREFETCH ISSUED TO LOWER LEVEL:          0  ACCURACY: -nan
L1D TIMELY PREFETCHES:          0 LATE PREFETCHES: 0 DROPPED PREFETCHES: 0
L1D PREFETCHES SAME FILL-ORIGIN LEVEL: 0 DIFFERENT FILL-ORIGIN LEVEL: 0
L1D AVERAGE MISS LATENCY: -nan cycles
L1D RQ	ACCESS:    5873651	FORWARD:          0	MERGED:    1614002	TO_CACHE:    4222309
L1D WQ	ACCESS:    3286575	FORWARD:      37340	MERGED:      19965	TO_CACHE:    3266610

L1D UNIQUE REGIONS ACCESSED: 0
L1D REGIONS CONFLICTS: 0
L1D Cross Page Prefetch Requests: 0
L1D Same Page Prefetch Requests: 0
L1D ROI Sum of L1D PQ occupancy: 0
L1D PREFETCHES PUSHED FROM L2C: 0
L1I TOTAL     ACCESS:    4851084  HIT:    3647360  MISS:    1203724  HIT %:    75.1865  MISS %:    24.8135   MPKI: 48.149
L1I LOAD      ACCESS:    4851084  HIT:    3647360  MISS:    1203724  HIT %:    75.1865  MISS %:    24.8135   MPKI: 48.149
L1I PREFETCH  REQUESTED:          0  ISSUED:          0  USEFUL:          0  USELESS:          0
L1I USEFUL LOAD PREFETCHES:          0 PREFETCH ISSUED TO LOWER LEVEL:          0  ACCURACY: -nan
L1I TIMELY PREFETCHES:          0 LATE PREFETCHES: 0 DROPPED PREFETCHES: 0
L1I PREFETCHES SAME FILL-ORIGIN LEVEL: 0 DIFFERENT FILL-ORIGIN LEVEL: 0
L1I AVERAGE MISS LATENCY: 14.3534 cycles
L1I RQ	ACCESS:    7219397	FORWARD:          0	MERGED:    2196969	TO_CACHE:    5022428

BTB TOTAL     ACCESS:    3788481  HIT:    2365798  MISS:    1422683  HIT %:    62.4471  MISS %:    37.5529   MPKI: 56.9073
BTB BRANCH_DIRECT_JUMP	ACCESS:     273048  HIT:     173413  MISS:      99635
BTB BRANCH_INDIRECT	ACCESS:    1421587  HIT:     888633  MISS:     532954
BTB BRANCH_CONDITIONAL	ACCESS:    1089546  HIT:     945879  MISS:     143667
BTB BRANCH_DIRECT_CALL	ACCESS:     424394  HIT:     191188  MISS:     233206
BTB BRANCH_INDIRECT_CALL	ACCESS:      77763  HIT:      30617  MISS:      47146
BTB BRANCH_RETURN	ACCESS:     502143  HIT:     136068  MISS:     366075
BTB BRANCH_OTHER ACCESS:          0  HIT:          0  MISS:          0

L2C TOTAL     ACCESS:    1205148  HIT:    1193685  MISS:      11463  HIT %:    99.0488  MISS %:   0.951169   MPKI: 0.45852
L2C LOAD      ACCESS:    1203724  HIT:    1192348  MISS:      11376  HIT %:    99.0549  MISS %:   0.945067   MPKI: 0.45504
L2C DATA LOAD MPKI: 0
L2C INSTRUCTION LOAD MPKI: 0.45504
L2C LOAD TRANSLATION ACCESS:       1424  HIT:       1337  MISS:         87  HIT %:    93.8904  MISS %:    6.10955   MPKI: 0.00348
L2C PREFETCH  REQUESTED:          0  ISSUED:          0  USEFUL:          0  USELESS:          0
L2C USEFUL LOAD PREFETCHES:          0 PREFETCH ISSUED TO LOWER LEVEL:          0  ACCURACY: -nan
L2C TIMELY PREFETCHES:          0 LATE PREFETCHES: 0 DROPPED PREFETCHES: 0
L2C PREFETCHES SAME FILL-ORIGIN LEVEL: 0 DIFFERENT FILL-ORIGIN LEVEL: 0
L2C AVERAGE MISS LATENCY: 30.1483 cycles
L2C RQ	ACCESS:    1205148	FORWARD:          0	MERGED:          0	TO_CACHE:    1205148

L2C Instructions Evicting Data 0
L2C Translations Evicting Data 0
L2C Data Evicting Data 0
L2C Instructions Evicting Instructions 11310
L2C Translations Evicting Instructions 59
L2C Data Evicting Instructions 0
L2C Instructions Evicting Translations 66
L2C Translations Evicting Translations 22
L2C Data Evicting Translations 0
L2C Dense regions hint from L2: 0
PSCL5 TOTAL     ACCESS:       1288  HIT:       1288  MISS:          0  HIT %:        100  MISS %:          0   MPKI: 0
PSCL5 LOAD TRANSLATION ACCESS:       1288  HIT:       1288  MISS:          0  HIT %:        100  MISS %:          0   MPKI: 0
PSCL5 PREFETCH  REQUESTED:          0  ISSUED:          0  USEFUL:          0  USELESS:          0
PSCL5 USEFUL LOAD PREFETCHES:          0 PREFETCH ISSUED TO LOWER LEVEL:          0  ACCURACY: -nan
PSCL5 TIMELY PREFETCHES:          0 LATE PREFETCHES: 0 DROPPED PREFETCHES: 0
PSCL5 PREFETCHES SAME FILL-ORIGIN LEVEL: 0 DIFFERENT FILL-ORIGIN LEVEL: 0

PSCL4 TOTAL     ACCESS:       1279  HIT:       1274  MISS:          5  HIT %:    99.6091  MISS %:    0.39093   MPKI: 0.0002
PSCL4 LOAD TRANSLATION ACCESS:       1279  HIT:       1274  MISS:          5  HIT %:    99.6091  MISS %:    0.39093   MPKI: 0.0002
PSCL4 PREFETCH  REQUESTED:          0  ISSUED:          0  USEFUL:          0  USELESS:          0
PSCL4 USEFUL LOAD PREFETCHES:          0 PREFETCH ISSUED TO LOWER LEVEL:          0  ACCURACY: -nan
PSCL4 TIMELY PREFETCHES:          0 LATE PREFETCHES: 0 DROPPED PREFETCHES: 0
PSCL4 PREFETCHES SAME FILL-ORIGIN LEVEL: 0 DIFFERENT FILL-ORIGIN LEVEL: 0

PSCL3 TOTAL     ACCESS:       1285  HIT:       1280  MISS:          5  HIT %:    99.6109  MISS %:   0.389105   MPKI: 0.0002
PSCL3 LOAD TRANSLATION ACCESS:       1285  HIT:       1280  MISS:          5  HIT %:    99.6109  MISS %:   0.389105   MPKI: 0.0002
PSCL3 PREFETCH  REQUESTED:          0  ISSUED:          0  USEFUL:          0  USELESS:          0
PSCL3 USEFUL LOAD PREFETCHES:          0 PREFETCH ISSUED TO LOWER LEVEL:          0  ACCURACY: -nan
PSCL3 TIMELY PREFETCHES:          0 LATE PREFETCHES: 0 DROPPED PREFETCHES: 0
PSCL3 PREFETCHES SAME FILL-ORIGIN LEVEL: 0 DIFFERENT FILL-ORIGIN LEVEL: 0

PSCL2 TOTAL     ACCESS:       1288  HIT:       1162  MISS:        126  HIT %:    90.2174  MISS %:    9.78261   MPKI: 0.00504
PSCL2 LOAD TRANSLATION ACCESS:       1288  HIT:       1162  MISS:        126  HIT %:    90.2174  MISS %:    9.78261   MPKI: 0.00504
PSCL2 PREFETCH  REQUESTED:          0  ISSUED:          0  USEFUL:          0  USELESS:          0
PSCL2 USEFUL LOAD PREFETCHES:          0 PREFETCH ISSUED TO LOWER LEVEL:          0  ACCURACY: -nan
PSCL2 TIMELY PREFETCHES:          0 LATE PREFETCHES: 0 DROPPED PREFETCHES: 0
PSCL2 PREFETCHES SAME FILL-ORIGIN LEVEL: 0 DIFFERENT FILL-ORIGIN LEVEL: 0

LLC TOTAL     ACCESS:      11463  HIT:      11453  MISS:         10  HIT %:    99.9128  MISS %:  0.0872372   MPKI: 0.0004
LLC LOAD      ACCESS:      11376  HIT:      11374  MISS:          2  HIT %:    99.9824  MISS %:  0.0175809   MPKI: 8e-05
LLC LOAD TRANSLATION ACCESS:         87  HIT:         79  MISS:          8  HIT %:    90.8046  MISS %:     9.1954   MPKI: 0.00032
LLC PREFETCH  REQUESTED:          0  ISSUED:          0  USEFUL:          0  USELESS:          0
LLC USEFUL LOAD PREFETCHES:          0 PREFETCH ISSUED TO LOWER LEVEL:          0  ACCURACY: -nan
LLC TIMELY PREFETCHES:          0 LATE PREFETCHES: 0 DROPPED PREFETCHES: 0
LLC PREFETCHES SAME FILL-ORIGIN LEVEL: 0 DIFFERENT FILL-ORIGIN LEVEL: 0
LLC AVERAGE MISS LATENCY: 170 cycles
LLC RQ	ACCESS:      11463	FORWARD:          0	MERGED:          0	TO_CACHE:      11463

LLC Dense regions hint to LLC: 0

RAW hits: 164709
Loads Generated: 6038360
Loads sent to L1D: 5873651
Stores Generated: 3286562
Stores sent to L1D: 3286575
Major fault: 0 Minor fault: 1865
Allocated PAGES: 1865

DRAM Statistics
 CHANNEL 0
 RQ ROW_BUFFER_HIT:          0  ROW_BUFFER_MISS:         10
 DBUS_CONGESTED:          0
 WQ ROW_BUFFER_HIT:          0  ROW_BUFFER_MISS:          0  FULL:          0

 AVG_CONGESTED_CYCLE: -
 All warmup complete: 2
Channel 0 Bank busy for read cycles: 0
Channel 0 Bank busy for write cycles: 0
Channel 0
Rank 0
0banks busy for read cycles: 69659479
0banks busy for write cycles: 0
1banks busy for read cycles: 1500
1banks busy for write cycles: 0
2banks busy for read cycles: 0
2banks busy for write cycles: 0
3banks busy for read cycles: 0
3banks busy for write cycles: 0
4banks busy for read cycles: 0
4banks busy for write cycles: 0
5banks busy for read cycles: 0
5banks busy for write cycles: 0
6banks busy for read cycles: 0
6banks busy for write cycles: 0
7banks busy for read cycles: 0
7banks busy for write cycles: 0
8banks busy for read cycles: 0
8banks busy for write cycles: 0

CPU 0 Branch Prediction Accuracy: 99.7841% MPKI: 0.381 Average ROB Occupancy at Mispredict: 31.4906
Branch types
NOT_BRANCH: 20587344 82.3494%
BRANCH_DIRECT_JUMP: 273048 1.09219%
BRANCH_INDIRECT: 1421587 5.68635%
BRANCH_CONDITIONAL: 1713486 6.85394%
BRANCH_DIRECT_CALL: 424394 1.69758%
BRANCH_INDIRECT_CALL: 77763 0.311052%
BRANCH_RETURN: 502143 2.00857%
BRANCH_OTHER: 0 0%

DRAM PAGES: 1048576
Allocated PAGES: 1865
