
*** ChampSim Multicore Out-of-Order Simulator ***

Warmup Instructions: 25000000
Simulation Instructions: 25000000
Number of CPUs: 1
LLC sets: 2048
LLC ways: 16
Off-chip DRAM Size: 4096 MB Channels: 1 Width: 64-bit Data Rate: 6400 MT/s
CPU 0 runs ../../traces/spec2k17/srv_21.champsimtrace.xz
.xz
BTB has LRU replacement policy
ITLB has LRU replacement policy
DTLB has LRU replacement policy
STLB has LRU replacement policy
L1I has LRU replacement policy
L1D has LRU replacement policy
Initialize SRRIP state for L2C
Initialize DRRIP state for LLC
Heartbeat CPU 0 instructions: 10000003 cycles: 2795450 heartbeat IPC: 3.57724 cumulative IPC: 3.57724 (Simulation time: 0 hr 10 min 26 sec) 
Heartbeat CPU 0 instructions: 20000002 cycles: 5585977 heartbeat IPC: 3.58355 cumulative IPC: 3.58039 (Simulation time: 0 hr 20 min 51 sec) 

Warmup complete CPU 0 instructions: 25000004 cycles: 6982404 (Simulation time: 0 hr 26 min 4 sec) 

Heartbeat CPU 0 instructions: 30000001 cycles: 21967076 heartbeat IPC: 0.61046 cumulative IPC: 0.333674 (Simulation time: 0 hr 33 min 38 sec) 
*** Reached end of trace for Core: 0 Repeating trace: ../../traces/spec2k17/srv_21.champsimtrace.xz
Heartbeat CPU 0 instructions: 40000003 cycles: 51941490 heartbeat IPC: 0.333618 cumulative IPC: 0.333637 (Simulation time: 0 hr 47 min 42 sec) 
Heartbeat CPU 0 instructions: 50000000 cycles: 81808782 heartbeat IPC: 0.334814 cumulative IPC: 0.334107 (Simulation time: 0 hr 57 min 48 sec) 
Finished CPU 0 instructions: 25000000 cycles: 74826381 cumulative IPC: 0.334107 (Simulation time: 0 hr 57 min 48 sec) 

ChampSim completed all CPUs

Region of Interest Statistics

CPU 0 cumulative IPC: 0.334107 instructions: 25000000 cycles: 74826381
ITLB TOTAL     ACCESS:    4328675  HIT:    4076104  MISS:     252571  HIT %:    94.1652  MISS %:    5.83483   MPKI: 10.1028
ITLB LOAD TRANSLATION ACCESS:    4328675  HIT:    4076104  MISS:     252571  HIT %:    94.1652  MISS %:    5.83483   MPKI: 10.1028
ITLB PREFETCH  REQUESTED:          0  ISSUED:          0  USEFUL:          0  USELESS:          0
ITLB USEFUL LOAD PREFETCHES:          0 PREFETCH ISSUED TO LOWER LEVEL:          0  ACCURACY: -nan
ITLB TIMELY PREFETCHES:          0 LATE PREFETCHES: 0 DROPPED PREFETCHES: 0
ITLB PREFETCHES SAME FILL-ORIGIN LEVEL: 0 DIFFERENT FILL-ORIGIN LEVEL: 0
ITLB AVERAGE MISS LATENCY: 9.04058 cycles
ITLB RQ	ACCESS:    5105403	FORWARD:          0	MERGED:     716425	TO_CACHE:    4388978

DTLB TOTAL     ACCESS:    5827655  HIT:    5600932  MISS:     226723  HIT %:    96.1095  MISS %:    3.89047   MPKI: 9.06892
DTLB LOAD TRANSLATION ACCESS:    5827655  HIT:    5600932  MISS:     226723  HIT %:    96.1095  MISS %:    3.89047   MPKI: 9.06892
DTLB PREFETCH  REQUESTED:          0  ISSUED:          0  USEFUL:          0  USELESS:          0
DTLB USEFUL LOAD PREFETCHES:          0 PREFETCH ISSUED TO LOWER LEVEL:          0  ACCURACY: -nan
DTLB TIMELY PREFETCHES:          0 LATE PREFETCHES: 0 DROPPED PREFETCHES: 0
DTLB PREFETCHES SAME FILL-ORIGIN LEVEL: 0 DIFFERENT FILL-ORIGIN LEVEL: 0
DTLB AVERAGE MISS LATENCY: 9.19784 cycles
DTLB RQ	ACCESS:    7651354	FORWARD:          0	MERGED:    1815756	TO_CACHE:    5835598

STLB TOTAL     ACCESS:     479294  HIT:     478092  MISS:       1202  HIT %:    99.7492  MISS %:   0.250786   MPKI: 0.04808
STLB LOAD TRANSLATION ACCESS:     479294  HIT:     478092  MISS:       1202  HIT %:    99.7492  MISS %:   0.250786   MPKI: 0.04808
STLB PREFETCH  REQUESTED:          0  ISSUED:          0  USEFUL:          0  USELESS:          0
STLB USEFUL LOAD PREFETCHES:          0 PREFETCH ISSUED TO LOWER LEVEL:          0  ACCURACY: -nan
STLB TIMELY PREFETCHES:          0 LATE PREFETCHES: 0 DROPPED PREFETCHES: 0
STLB PREFETCHES SAME FILL-ORIGIN LEVEL: 0 DIFFERENT FILL-ORIGIN LEVEL: 0
STLB AVERAGE MISS LATENCY: 43.2263 cycles
STLB RQ	ACCESS:     479294	FORWARD:          0	MERGED:          0	TO_CACHE:     479294

STLB Hit, L1D data hit: 0
STLB Hit, L2C data hit: 0
STLB Hit, LLC data hit: 0
STLB Hit, LLC data miss: 0
STLB STLB hints to L2: 0
L1D TOTAL     ACCESS:    7651350  HIT:    7651350  MISS:          0  HIT %:        100  MISS %:          0   MPKI: 0
L1D LOAD      ACCESS:    4304568  HIT:    4304568  MISS:          0  HIT %:        100  MISS %:          0   MPKI: 0
L1D RFO       ACCESS:    3346782  HIT:    3346782  MISS:          0  HIT %:        100  MISS %:          0   MPKI: 0
L1D PREFETCH  REQUESTED:          0  ISSUED:          0  USEFUL:          0  USELESS:          0
L1D USEFUL LOAD PREFETCHES:          0 PREFETCH ISSUED TO LOWER LEVEL:          0  ACCURACY: -nan
L1D TIMELY PREFETCHES:          0 LATE PREFETCHES: 0 DROPPED PREFETCHES: 0
L1D PREFETCHES SAME FILL-ORIGIN LEVEL: 0 DIFFERENT FILL-ORIGIN LEVEL: 0
L1D AVERAGE MISS LATENCY: -nan cycles
L1D RQ	ACCESS:    5951282	FORWARD:          0	MERGED:    1608339	TO_CACHE:    4304568
L1D WQ	ACCESS:    3365732	FORWARD:      38375	MERGED:      18946	TO_CACHE:    3346786

L1D UNIQUE REGIONS ACCESSED: 0
L1D REGIONS CONFLICTS: 0
L1D Cross Page Prefetch Requests: 0
L1D Same Page Prefetch Requests: 0
L1D ROI Sum of L1D PQ occupancy: 0
L1D PREFETCHES PUSHED FROM L2C: 0
L1I TOTAL     ACCESS:    4920797  HIT:    3601279  MISS:    1319518  HIT %:    73.1849  MISS %:    26.8151   MPKI: 52.7807
L1I LOAD      ACCESS:    4920797  HIT:    3601279  MISS:    1319518  HIT %:    73.1849  MISS %:    26.8151   MPKI: 52.7807
L1I PREFETCH  REQUESTED:          0  ISSUED:          0  USEFUL:          0  USELESS:          0
L1I USEFUL LOAD PREFETCHES:          0 PREFETCH ISSUED TO LOWER LEVEL:          0  ACCURACY: -nan
L1I TIMELY PREFETCHES:          0 LATE PREFETCHES: 0 DROPPED PREFETCHES: 0
L1I PREFETCHES SAME FILL-ORIGIN LEVEL: 0 DIFFERENT FILL-ORIGIN LEVEL: 0
L1I AVERAGE MISS LATENCY: 14.3537 cycles
L1I RQ	ACCESS:    7233774	FORWARD:          0	MERGED:    2128371	TO_CACHE:    5105403

BTB TOTAL     ACCESS:    3752717  HIT:    2166074  MISS:    1586643  HIT %:    57.7202  MISS %:    42.2798   MPKI: 63.4657
BTB BRANCH_DIRECT_JUMP	ACCESS:     253552  HIT:     142139  MISS:     111413
BTB BRANCH_INDIRECT	ACCESS:    1480763  HIT:     878499  MISS:     602264
BTB BRANCH_CONDITIONAL	ACCESS:     955222  HIT:     788239  MISS:     166983
BTB BRANCH_DIRECT_CALL	ACCESS:     448240  HIT:     186999  MISS:     261241
BTB BRANCH_INDIRECT_CALL	ACCESS:      83347  HIT:      32548  MISS:      50799
BTB BRANCH_RETURN	ACCESS:     531593  HIT:     137650  MISS:     393943
BTB BRANCH_OTHER ACCESS:          0  HIT:          0  MISS:          0

L2C TOTAL     ACCESS:    1320825  HIT:    1310388  MISS:      10437  HIT %:    99.2098  MISS %:   0.790188   MPKI: 0.41748
L2C LOAD      ACCESS:    1319517  HIT:    1309204  MISS:      10313  HIT %:    99.2184  MISS %:   0.781574   MPKI: 0.41252
L2C DATA LOAD MPKI: 0
L2C INSTRUCTION LOAD MPKI: 0.41252
L2C LOAD TRANSLATION ACCESS:       1308  HIT:       1184  MISS:        124  HIT %:    90.5199  MISS %:    9.48012   MPKI: 0.00496
L2C PREFETCH  REQUESTED:          0  ISSUED:          0  USEFUL:          0  USELESS:          0
L2C USEFUL LOAD PREFETCHES:          0 PREFETCH ISSUED TO LOWER LEVEL:          0  ACCURACY: -nan
L2C TIMELY PREFETCHES:          0 LATE PREFETCHES: 0 DROPPED PREFETCHES: 0
L2C PREFETCHES SAME FILL-ORIGIN LEVEL: 0 DIFFERENT FILL-ORIGIN LEVEL: 0
L2C AVERAGE MISS LATENCY: 36.7847 cycles
L2C RQ	ACCESS:    1320825	FORWARD:          0	MERGED:          0	TO_CACHE:    1320825

L2C Instructions Evicting Data 0
L2C Translations Evicting Data 0
L2C Data Evicting Data 0
L2C Instructions Evicting Instructions 9850
L2C Translations Evicting Instructions 87
L2C Data Evicting Instructions 0
L2C Instructions Evicting Translations 102
L2C Translations Evicting Translations 3
L2C Data Evicting Translations 0
L2C Dense regions hint from L2: 0
PSCL5 TOTAL     ACCESS:       1202  HIT:       1202  MISS:          0  HIT %:        100  MISS %:          0   MPKI: 0
PSCL5 LOAD TRANSLATION ACCESS:       1202  HIT:       1202  MISS:          0  HIT %:        100  MISS %:          0   MPKI: 0
PSCL5 PREFETCH  REQUESTED:          0  ISSUED:          0  USEFUL:          0  USELESS:          0
PSCL5 USEFUL LOAD PREFETCHES:          0 PREFETCH ISSUED TO LOWER LEVEL:          0  ACCURACY: -nan
PSCL5 TIMELY PREFETCHES:          0 LATE PREFETCHES: 0 DROPPED PREFETCHES: 0
PSCL5 PREFETCHES SAME FILL-ORIGIN LEVEL: 0 DIFFERENT FILL-ORIGIN LEVEL: 0

PSCL4 TOTAL     ACCESS:       1120  HIT:       1108  MISS:         12  HIT %:    98.9286  MISS %:    1.07143   MPKI: 0.00048
PSCL4 LOAD TRANSLATION ACCESS:       1120  HIT:       1108  MISS:         12  HIT %:    98.9286  MISS %:    1.07143   MPKI: 0.00048
PSCL4 PREFETCH  REQUESTED:          0  ISSUED:          0  USEFUL:          0  USELESS:          0
PSCL4 USEFUL LOAD PREFETCHES:          0 PREFETCH ISSUED TO LOWER LEVEL:          0  ACCURACY: -nan
PSCL4 TIMELY PREFETCHES:          0 LATE PREFETCHES: 0 DROPPED PREFETCHES: 0
PSCL4 PREFETCHES SAME FILL-ORIGIN LEVEL: 0 DIFFERENT FILL-ORIGIN LEVEL: 0

PSCL3 TOTAL     ACCESS:       1151  HIT:       1139  MISS:         12  HIT %:    98.9574  MISS %:    1.04257   MPKI: 0.00048
PSCL3 LOAD TRANSLATION ACCESS:       1151  HIT:       1139  MISS:         12  HIT %:    98.9574  MISS %:    1.04257   MPKI: 0.00048
PSCL3 PREFETCH  REQUESTED:          0  ISSUED:          0  USEFUL:          0  USELESS:          0
PSCL3 USEFUL LOAD PREFETCHES:          0 PREFETCH ISSUED TO LOWER LEVEL:          0  ACCURACY: -nan
PSCL3 TIMELY PREFETCHES:          0 LATE PREFETCHES: 0 DROPPED PREFETCHES: 0
PSCL3 PREFETCHES SAME FILL-ORIGIN LEVEL: 0 DIFFERENT FILL-ORIGIN LEVEL: 0

PSCL2 TOTAL     ACCESS:       1202  HIT:       1117  MISS:         85  HIT %:    92.9285  MISS %:    7.07155   MPKI: 0.0034
PSCL2 LOAD TRANSLATION ACCESS:       1202  HIT:       1117  MISS:         85  HIT %:    92.9285  MISS %:    7.07155   MPKI: 0.0034
PSCL2 PREFETCH  REQUESTED:          0  ISSUED:          0  USEFUL:          0  USELESS:          0
PSCL2 USEFUL LOAD PREFETCHES:          0 PREFETCH ISSUED TO LOWER LEVEL:          0  ACCURACY: -nan
PSCL2 TIMELY PREFETCHES:          0 LATE PREFETCHES: 0 DROPPED PREFETCHES: 0
PSCL2 PREFETCHES SAME FILL-ORIGIN LEVEL: 0 DIFFERENT FILL-ORIGIN LEVEL: 0

LLC TOTAL     ACCESS:      10437  HIT:       9958  MISS:        479  HIT %:    95.4106  MISS %:    4.58944   MPKI: 0.01916
LLC LOAD      ACCESS:      10313  HIT:       9875  MISS:        438  HIT %:    95.7529  MISS %:    4.24707   MPKI: 0.01752
LLC LOAD TRANSLATION ACCESS:        124  HIT:         83  MISS:         41  HIT %:    66.9355  MISS %:    33.0645   MPKI: 0.00164
LLC PREFETCH  REQUESTED:          0  ISSUED:          0  USEFUL:          0  USELESS:          0
LLC USEFUL LOAD PREFETCHES:          0 PREFETCH ISSUED TO LOWER LEVEL:          0  ACCURACY: -nan
LLC TIMELY PREFETCHES:          0 LATE PREFETCHES: 0 DROPPED PREFETCHES: 0
LLC PREFETCHES SAME FILL-ORIGIN LEVEL: 0 DIFFERENT FILL-ORIGIN LEVEL: 0
LLC AVERAGE MISS LATENCY: 147.501 cycles
LLC RQ	ACCESS:      10437	FORWARD:          0	MERGED:          0	TO_CACHE:      10437

LLC Dense regions hint to LLC: 0

RAW hits: 167243
Loads Generated: 6118528
Loads sent to L1D: 5951282
Stores Generated: 3365726
Stores sent to L1D: 3365732
Major fault: 0 Minor fault: 2008
Allocated PAGES: 2008

DRAM Statistics
 CHANNEL 0
 RQ ROW_BUFFER_HIT:        109  ROW_BUFFER_MISS:        370
 DBUS_CONGESTED:          0
 WQ ROW_BUFFER_HIT:          0  ROW_BUFFER_MISS:          0  FULL:          0

 AVG_CONGESTED_CYCLE: -
 All warmup complete: 2
Channel 0 Bank busy for read cycles: 0
Channel 0 Bank busy for write cycles: 0
Channel 0
Rank 0
0banks busy for read cycles: 74771781
0banks busy for write cycles: 0
1banks busy for read cycles: 48252
1banks busy for write cycles: 0
2banks busy for read cycles: 6349
2banks busy for write cycles: 0
3banks busy for read cycles: 0
3banks busy for write cycles: 0
4banks busy for read cycles: 0
4banks busy for write cycles: 0
5banks busy for read cycles: 0
5banks busy for write cycles: 0
6banks busy for read cycles: 0
6banks busy for write cycles: 0
7banks busy for read cycles: 0
7banks busy for write cycles: 0
8banks busy for read cycles: 0
8banks busy for write cycles: 0

CPU 0 Branch Prediction Accuracy: 99.8264% MPKI: 0.30488 Average ROB Occupancy at Mispredict: 21.9932
Branch types
NOT_BRANCH: 20609885 82.4395%
BRANCH_DIRECT_JUMP: 253552 1.01421%
BRANCH_INDIRECT: 1480763 5.92305%
BRANCH_CONDITIONAL: 1592485 6.36994%
BRANCH_DIRECT_CALL: 448240 1.79296%
BRANCH_INDIRECT_CALL: 83347 0.333388%
BRANCH_RETURN: 531593 2.12637%
BRANCH_OTHER: 0 0%

DRAM PAGES: 1048576
Allocated PAGES: 2008
