
*** ChampSim Multicore Out-of-Order Simulator ***

Warmup Instructions: 25000000
Simulation Instructions: 25000000
Number of CPUs: 1
LLC sets: 2048
LLC ways: 16
Off-chip DRAM Size: 4096 MB Channels: 1 Width: 64-bit Data Rate: 6400 MT/s
CPU 0 runs ../../traces/spec2k17/srv_65.champsimtrace.xz
.xz
BTB has LRU replacement policy
ITLB has LRU replacement policy
DTLB has LRU replacement policy
STLB has LRU replacement policy
L1I has LRU replacement policy
L1D has LRU replacement policy
Initialize SRRIP state for L2C
Initialize DRRIP state for LLC
Heartbeat CPU 0 instructions: 10000001 cycles: 2734842 heartbeat IPC: 3.65652 cumulative IPC: 3.65652 (Simulation time: 0 hr 10 min 40 sec) 
Heartbeat CPU 0 instructions: 20000001 cycles: 5462482 heartbeat IPC: 3.66617 cumulative IPC: 3.66134 (Simulation time: 0 hr 21 min 19 sec) 

Warmup complete CPU 0 instructions: 25000001 cycles: 6826339 (Simulation time: 0 hr 26 min 29 sec) 

Heartbeat CPU 0 instructions: 30000000 cycles: 15800843 heartbeat IPC: 0.967271 cumulative IPC: 0.557134 (Simulation time: 0 hr 33 min 7 sec) 
*** Reached end of trace for Core: 0 Repeating trace: ../../traces/spec2k17/srv_65.champsimtrace.xz
Heartbeat CPU 0 instructions: 40000000 cycles: 34100267 heartbeat IPC: 0.546465 cumulative IPC: 0.549976 (Simulation time: 0 hr 46 min 10 sec) 
Heartbeat CPU 0 instructions: 50000000 cycles: 52595012 heartbeat IPC: 0.540694 cumulative IPC: 0.546225 (Simulation time: 0 hr 56 min 45 sec) 
Finished CPU 0 instructions: 25000002 cycles: 45768679 cumulative IPC: 0.546225 (Simulation time: 0 hr 56 min 45 sec) 

ChampSim completed all CPUs

Region of Interest Statistics

CPU 0 cumulative IPC: 0.546225 instructions: 25000002 cycles: 45768679
ITLB TOTAL     ACCESS:    3902370  HIT:    3801761  MISS:     100609  HIT %:    97.4218  MISS %:    2.57815   MPKI: 4.02436
ITLB LOAD TRANSLATION ACCESS:    3902370  HIT:    3801761  MISS:     100609  HIT %:    97.4218  MISS %:    2.57815   MPKI: 4.02436
ITLB PREFETCH  REQUESTED:          0  ISSUED:          0  USEFUL:          0  USELESS:          0
ITLB USEFUL LOAD PREFETCHES:          0 PREFETCH ISSUED TO LOWER LEVEL:          0  ACCURACY: -nan
ITLB TIMELY PREFETCHES:          0 LATE PREFETCHES: 0 DROPPED PREFETCHES: 0
ITLB PREFETCHES SAME FILL-ORIGIN LEVEL: 0 DIFFERENT FILL-ORIGIN LEVEL: 0
ITLB AVERAGE MISS LATENCY: 12.2645 cycles
ITLB RQ	ACCESS:    4760447	FORWARD:          0	MERGED:     832540	TO_CACHE:    3927907

DTLB TOTAL     ACCESS:    4677865  HIT:    4384419  MISS:     293446  HIT %:    93.7269  MISS %:    6.27308   MPKI: 11.7378
DTLB LOAD TRANSLATION ACCESS:    4677865  HIT:    4384419  MISS:     293446  HIT %:    93.7269  MISS %:    6.27308   MPKI: 11.7378
DTLB PREFETCH  REQUESTED:          0  ISSUED:          0  USEFUL:          0  USELESS:          0
DTLB USEFUL LOAD PREFETCHES:          0 PREFETCH ISSUED TO LOWER LEVEL:          0  ACCURACY: -nan
DTLB TIMELY PREFETCHES:          0 LATE PREFETCHES: 0 DROPPED PREFETCHES: 0
DTLB PREFETCHES SAME FILL-ORIGIN LEVEL: 0 DIFFERENT FILL-ORIGIN LEVEL: 0
DTLB AVERAGE MISS LATENCY: 12.371 cycles
DTLB RQ	ACCESS:    5973136	FORWARD:          0	MERGED:    1277000	TO_CACHE:    4696136

STLB TOTAL     ACCESS:     394055  HIT:     354841  MISS:      39214  HIT %:    90.0486  MISS %:     9.9514   MPKI: 1.56856
STLB LOAD TRANSLATION ACCESS:     394055  HIT:     354841  MISS:      39214  HIT %:    90.0486  MISS %:     9.9514   MPKI: 1.56856
STLB PREFETCH  REQUESTED:          0  ISSUED:          0  USEFUL:          0  USELESS:          0
STLB USEFUL LOAD PREFETCHES:          0 PREFETCH ISSUED TO LOWER LEVEL:          0  ACCURACY: -nan
STLB TIMELY PREFETCHES:          0 LATE PREFETCHES: 0 DROPPED PREFETCHES: 0
STLB PREFETCHES SAME FILL-ORIGIN LEVEL: 0 DIFFERENT FILL-ORIGIN LEVEL: 0
STLB AVERAGE MISS LATENCY: 33.2986 cycles
STLB RQ	ACCESS:     394055	FORWARD:          0	MERGED:          0	TO_CACHE:     394055

STLB Hit, L1D data hit: 0
STLB Hit, L2C data hit: 0
STLB Hit, LLC data hit: 0
STLB Hit, LLC data miss: 0
STLB STLB hints to L2: 0
L1D TOTAL     ACCESS:    5973135  HIT:    5973135  MISS:          0  HIT %:        100  MISS %:          0   MPKI: 0
L1D LOAD      ACCESS:    3480868  HIT:    3480868  MISS:          0  HIT %:        100  MISS %:          0   MPKI: 0
L1D RFO       ACCESS:    2492267  HIT:    2492267  MISS:          0  HIT %:        100  MISS %:          0   MPKI: 0
L1D PREFETCH  REQUESTED:          0  ISSUED:          0  USEFUL:          0  USELESS:          0
L1D USEFUL LOAD PREFETCHES:          0 PREFETCH ISSUED TO LOWER LEVEL:          0  ACCURACY: -nan
L1D TIMELY PREFETCHES:          0 LATE PREFETCHES: 0 DROPPED PREFETCHES: 0
L1D PREFETCHES SAME FILL-ORIGIN LEVEL: 0 DIFFERENT FILL-ORIGIN LEVEL: 0
L1D AVERAGE MISS LATENCY: -nan cycles
L1D RQ	ACCESS:    5290203	FORWARD:          0	MERGED:    1779490	TO_CACHE:    3480869
L1D WQ	ACCESS:    2530108	FORWARD:      29844	MERGED:      37841	TO_CACHE:    2492267

L1D UNIQUE REGIONS ACCESSED: 0
L1D REGIONS CONFLICTS: 0
L1D Cross Page Prefetch Requests: 0
L1D Same Page Prefetch Requests: 0
L1D ROI Sum of L1D PQ occupancy: 0
L1D PREFETCHES PUSHED FROM L2C: 0
L1I TOTAL     ACCESS:    4535246  HIT:    3896850  MISS:     638396  HIT %:    85.9237  MISS %:    14.0763   MPKI: 25.5358
L1I LOAD      ACCESS:    4535246  HIT:    3896850  MISS:     638396  HIT %:    85.9237  MISS %:    14.0763   MPKI: 25.5358
L1I PREFETCH  REQUESTED:          0  ISSUED:          0  USEFUL:          0  USELESS:          0
L1I USEFUL LOAD PREFETCHES:          0 PREFETCH ISSUED TO LOWER LEVEL:          0  ACCURACY: -nan
L1I TIMELY PREFETCHES:          0 LATE PREFETCHES: 0 DROPPED PREFETCHES: 0
L1I PREFETCHES SAME FILL-ORIGIN LEVEL: 0 DIFFERENT FILL-ORIGIN LEVEL: 0
L1I AVERAGE MISS LATENCY: 17.3758 cycles
L1I RQ	ACCESS:    7147637	FORWARD:          0	MERGED:    2387190	TO_CACHE:    4760447

BTB TOTAL     ACCESS:    2791030  HIT:    2266587  MISS:     524443  HIT %:    81.2097  MISS %:    18.7903   MPKI: 20.9777
BTB BRANCH_DIRECT_JUMP	ACCESS:     225929  HIT:     197198  MISS:      28731
BTB BRANCH_INDIRECT	ACCESS:    1195480  HIT:     941944  MISS:     253536
BTB BRANCH_CONDITIONAL	ACCESS:     569522  HIT:     522611  MISS:      46911
BTB BRANCH_DIRECT_CALL	ACCESS:     314256  HIT:     258230  MISS:      56026
BTB BRANCH_INDIRECT_CALL	ACCESS:      85677  HIT:      80417  MISS:       5260
BTB BRANCH_RETURN	ACCESS:     400166  HIT:     266187  MISS:     133979
BTB BRANCH_OTHER ACCESS:          0  HIT:          0  MISS:          0

L2C TOTAL     ACCESS:     690200  HIT:     611390  MISS:      78810  HIT %:    88.5816  MISS %:    11.4184   MPKI: 3.1524
L2C LOAD      ACCESS:     638396  HIT:     568658  MISS:      69738  HIT %:    89.0761  MISS %:    10.9239   MPKI: 2.78952
L2C DATA LOAD MPKI: 0
L2C INSTRUCTION LOAD MPKI: 2.78952
L2C LOAD TRANSLATION ACCESS:      51804  HIT:      42732  MISS:       9072  HIT %:    82.4878  MISS %:    17.5122   MPKI: 0.36288
L2C PREFETCH  REQUESTED:          0  ISSUED:          0  USEFUL:          0  USELESS:          0
L2C USEFUL LOAD PREFETCHES:          0 PREFETCH ISSUED TO LOWER LEVEL:          0  ACCURACY: -nan
L2C TIMELY PREFETCHES:          0 LATE PREFETCHES: 0 DROPPED PREFETCHES: 0
L2C PREFETCHES SAME FILL-ORIGIN LEVEL: 0 DIFFERENT FILL-ORIGIN LEVEL: 0
L2C AVERAGE MISS LATENCY: 31.003 cycles
L2C RQ	ACCESS:     690200	FORWARD:          0	MERGED:          0	TO_CACHE:     690200

L2C Instructions Evicting Data 0
L2C Translations Evicting Data 0
L2C Data Evicting Data 0
L2C Instructions Evicting Instructions 62092
L2C Translations Evicting Instructions 7625
L2C Data Evicting Instructions 0
L2C Instructions Evicting Translations 7640
L2C Translations Evicting Translations 1412
L2C Data Evicting Translations 0
L2C Dense regions hint from L2: 0
PSCL5 TOTAL     ACCESS:      39214  HIT:      39214  MISS:          0  HIT %:        100  MISS %:          0   MPKI: 0
PSCL5 LOAD TRANSLATION ACCESS:      39214  HIT:      39214  MISS:          0  HIT %:        100  MISS %:          0   MPKI: 0
PSCL5 PREFETCH  REQUESTED:          0  ISSUED:          0  USEFUL:          0  USELESS:          0
PSCL5 USEFUL LOAD PREFETCHES:          0 PREFETCH ISSUED TO LOWER LEVEL:          0  ACCURACY: -nan
PSCL5 TIMELY PREFETCHES:          0 LATE PREFETCHES: 0 DROPPED PREFETCHES: 0
PSCL5 PREFETCHES SAME FILL-ORIGIN LEVEL: 0 DIFFERENT FILL-ORIGIN LEVEL: 0

PSCL4 TOTAL     ACCESS:      38393  HIT:      38200  MISS:        193  HIT %:    99.4973  MISS %:   0.502696   MPKI: 0.00772
PSCL4 LOAD TRANSLATION ACCESS:      38393  HIT:      38200  MISS:        193  HIT %:    99.4973  MISS %:   0.502696   MPKI: 0.00772
PSCL4 PREFETCH  REQUESTED:          0  ISSUED:          0  USEFUL:          0  USELESS:          0
PSCL4 USEFUL LOAD PREFETCHES:          0 PREFETCH ISSUED TO LOWER LEVEL:          0  ACCURACY: -nan
PSCL4 TIMELY PREFETCHES:          0 LATE PREFETCHES: 0 DROPPED PREFETCHES: 0
PSCL4 PREFETCHES SAME FILL-ORIGIN LEVEL: 0 DIFFERENT FILL-ORIGIN LEVEL: 0

PSCL3 TOTAL     ACCESS:      39079  HIT:      38886  MISS:        193  HIT %:    99.5061  MISS %:   0.493871   MPKI: 0.00772
PSCL3 LOAD TRANSLATION ACCESS:      39079  HIT:      38886  MISS:        193  HIT %:    99.5061  MISS %:   0.493871   MPKI: 0.00772
PSCL3 PREFETCH  REQUESTED:          0  ISSUED:          0  USEFUL:          0  USELESS:          0
PSCL3 USEFUL LOAD PREFETCHES:          0 PREFETCH ISSUED TO LOWER LEVEL:          0  ACCURACY: -nan
PSCL3 TIMELY PREFETCHES:          0 LATE PREFETCHES: 0 DROPPED PREFETCHES: 0
PSCL3 PREFETCHES SAME FILL-ORIGIN LEVEL: 0 DIFFERENT FILL-ORIGIN LEVEL: 0

PSCL2 TOTAL     ACCESS:      39214  HIT:      27008  MISS:      12206  HIT %:    68.8734  MISS %:    31.1266   MPKI: 0.48824
PSCL2 LOAD TRANSLATION ACCESS:      39214  HIT:      27008  MISS:      12206  HIT %:    68.8734  MISS %:    31.1266   MPKI: 0.48824
PSCL2 PREFETCH  REQUESTED:          0  ISSUED:          0  USEFUL:          0  USELESS:          0
PSCL2 USEFUL LOAD PREFETCHES:          0 PREFETCH ISSUED TO LOWER LEVEL:          0  ACCURACY: -nan
PSCL2 TIMELY PREFETCHES:          0 LATE PREFETCHES: 0 DROPPED PREFETCHES: 0
PSCL2 PREFETCHES SAME FILL-ORIGIN LEVEL: 0 DIFFERENT FILL-ORIGIN LEVEL: 0

LLC TOTAL     ACCESS:      78810  HIT:      78341  MISS:        469  HIT %:    99.4049  MISS %:   0.595102   MPKI: 0.01876
LLC LOAD      ACCESS:      69738  HIT:      69601  MISS:        137  HIT %:    99.8036  MISS %:    0.19645   MPKI: 0.00548
LLC LOAD TRANSLATION ACCESS:       9072  HIT:       8740  MISS:        332  HIT %:    96.3404  MISS %:    3.65961   MPKI: 0.01328
LLC PREFETCH  REQUESTED:          0  ISSUED:          0  USEFUL:          0  USELESS:          0
LLC USEFUL LOAD PREFETCHES:          0 PREFETCH ISSUED TO LOWER LEVEL:          0  ACCURACY: -nan
LLC TIMELY PREFETCHES:          0 LATE PREFETCHES: 0 DROPPED PREFETCHES: 0
LLC PREFETCHES SAME FILL-ORIGIN LEVEL: 0 DIFFERENT FILL-ORIGIN LEVEL: 0
LLC AVERAGE MISS LATENCY: 166.802 cycles
LLC RQ	ACCESS:      78810	FORWARD:          0	MERGED:          0	TO_CACHE:      78810

LLC Dense regions hint to LLC: 0

RAW hits: 312516
Loads Generated: 5602719
Loads sent to L1D: 5290203
Stores Generated: 2530104
Stores sent to L1D: 2530108
Major fault: 0 Minor fault: 5727
Allocated PAGES: 5727

DRAM Statistics
 CHANNEL 0
 RQ ROW_BUFFER_HIT:         15  ROW_BUFFER_MISS:        454
 DBUS_CONGESTED:          0
 WQ ROW_BUFFER_HIT:          0  ROW_BUFFER_MISS:          0  FULL:          0

 AVG_CONGESTED_CYCLE: -
 All warmup complete: 2
Channel 0 Bank busy for read cycles: 0
Channel 0 Bank busy for write cycles: 0
Channel 0
Rank 0
0banks busy for read cycles: 45701318
0banks busy for write cycles: 0
1banks busy for read cycles: 65874
1banks busy for write cycles: 0
2banks busy for read cycles: 1488
2banks busy for write cycles: 0
3banks busy for read cycles: 0
3banks busy for write cycles: 0
4banks busy for read cycles: 0
4banks busy for write cycles: 0
5banks busy for read cycles: 0
5banks busy for write cycles: 0
6banks busy for read cycles: 0
6banks busy for write cycles: 0
7banks busy for read cycles: 0
7banks busy for write cycles: 0
8banks busy for read cycles: 0
8banks busy for write cycles: 0

CPU 0 Branch Prediction Accuracy: 99.7788% MPKI: 0.39788 Average ROB Occupancy at Mispredict: 28.4551
Branch types
NOT_BRANCH: 20503291 82.0132%
BRANCH_DIRECT_JUMP: 225929 0.903716%
BRANCH_INDIRECT: 1195480 4.78192%
BRANCH_CONDITIONAL: 2274857 9.09943%
BRANCH_DIRECT_CALL: 314256 1.25702%
BRANCH_INDIRECT_CALL: 85677 0.342708%
BRANCH_RETURN: 400166 1.60066%
BRANCH_OTHER: 0 0%

DRAM PAGES: 1048576
Allocated PAGES: 5727
