
*** ChampSim Multicore Out-of-Order Simulator ***

Warmup Instructions: 25000000
Simulation Instructions: 25000000
Number of CPUs: 1
LLC sets: 2048
LLC ways: 16
Off-chip DRAM Size: 4096 MB Channels: 1 Width: 64-bit Data Rate: 6400 MT/s
CPU 0 runs ../../traces/spec2k17/srv_53.champsimtrace.xz
.xz
BTB has LRU replacement policy
ITLB has LRU replacement policy
DTLB has LRU replacement policy
STLB has LRU replacement policy
L1I has LRU replacement policy
L1D has LRU replacement policy
Initialize SRRIP state for L2C
Initialize DRRIP state for LLC
Heartbeat CPU 0 instructions: 10000002 cycles: 2913220 heartbeat IPC: 3.43263 cumulative IPC: 3.43263 (Simulation time: 0 hr 9 min 47 sec) 
Heartbeat CPU 0 instructions: 20000002 cycles: 5826580 heartbeat IPC: 3.43246 cumulative IPC: 3.43255 (Simulation time: 0 hr 19 min 8 sec) 

Warmup complete CPU 0 instructions: 25000003 cycles: 7287773 (Simulation time: 0 hr 23 min 44 sec) 

Heartbeat CPU 0 instructions: 30000002 cycles: 19859604 heartbeat IPC: 0.712605 cumulative IPC: 0.397714 (Simulation time: 0 hr 30 min 13 sec) 
*** Reached end of trace for Core: 0 Repeating trace: ../../traces/spec2k17/srv_53.champsimtrace.xz
Heartbeat CPU 0 instructions: 40000001 cycles: 45611332 heartbeat IPC: 0.388323 cumulative IPC: 0.391404 (Simulation time: 0 hr 43 min 28 sec) 
Heartbeat CPU 0 instructions: 50000003 cycles: 70679506 heartbeat IPC: 0.398912 cumulative IPC: 0.394373 (Simulation time: 0 hr 54 min 25 sec) 
Finished CPU 0 instructions: 25000000 cycles: 63391733 cumulative IPC: 0.394373 (Simulation time: 0 hr 54 min 25 sec) 

ChampSim completed all CPUs

Region of Interest Statistics

CPU 0 cumulative IPC: 0.394373 instructions: 25000000 cycles: 63391733
ITLB TOTAL     ACCESS:    4366013  HIT:    4206457  MISS:     159556  HIT %:    96.3455  MISS %:     3.6545   MPKI: 6.38224
ITLB LOAD TRANSLATION ACCESS:    4366013  HIT:    4206457  MISS:     159556  HIT %:    96.3455  MISS %:     3.6545   MPKI: 6.38224
ITLB PREFETCH  REQUESTED:          0  ISSUED:          0  USEFUL:          0  USELESS:          0
ITLB USEFUL LOAD PREFETCHES:          0 PREFETCH ISSUED TO LOWER LEVEL:          0  ACCURACY: -nan
ITLB TIMELY PREFETCHES:          0 LATE PREFETCHES: 0 DROPPED PREFETCHES: 0
ITLB PREFETCHES SAME FILL-ORIGIN LEVEL: 0 DIFFERENT FILL-ORIGIN LEVEL: 0
ITLB AVERAGE MISS LATENCY: 9.59588 cycles
ITLB RQ	ACCESS:    4990170	FORWARD:          0	MERGED:     579516	TO_CACHE:    4410654

DTLB TOTAL     ACCESS:    4528147  HIT:    4369239  MISS:     158908  HIT %:    96.4907  MISS %:    3.50934   MPKI: 6.35632
DTLB LOAD TRANSLATION ACCESS:    4528147  HIT:    4369239  MISS:     158908  HIT %:    96.4907  MISS %:    3.50934   MPKI: 6.35632
DTLB PREFETCH  REQUESTED:          0  ISSUED:          0  USEFUL:          0  USELESS:          0
DTLB USEFUL LOAD PREFETCHES:          0 PREFETCH ISSUED TO LOWER LEVEL:          0  ACCURACY: -nan
DTLB TIMELY PREFETCHES:          0 LATE PREFETCHES: 0 DROPPED PREFETCHES: 0
DTLB PREFETCHES SAME FILL-ORIGIN LEVEL: 0 DIFFERENT FILL-ORIGIN LEVEL: 0
DTLB AVERAGE MISS LATENCY: 11.1008 cycles
DTLB RQ	ACCESS:    6121115	FORWARD:          0	MERGED:    1584413	TO_CACHE:    4536702

STLB TOTAL     ACCESS:     318464  HIT:     306757  MISS:      11707  HIT %:    96.3239  MISS %:    3.67608   MPKI: 0.46828
STLB LOAD TRANSLATION ACCESS:     318464  HIT:     306757  MISS:      11707  HIT %:    96.3239  MISS %:    3.67608   MPKI: 0.46828
STLB PREFETCH  REQUESTED:          0  ISSUED:          0  USEFUL:          0  USELESS:          0
STLB USEFUL LOAD PREFETCHES:          0 PREFETCH ISSUED TO LOWER LEVEL:          0  ACCURACY: -nan
STLB TIMELY PREFETCHES:          0 LATE PREFETCHES: 0 DROPPED PREFETCHES: 0
STLB PREFETCHES SAME FILL-ORIGIN LEVEL: 0 DIFFERENT FILL-ORIGIN LEVEL: 0
STLB AVERAGE MISS LATENCY: 36.4104 cycles
STLB RQ	ACCESS:     318464	FORWARD:          0	MERGED:          0	TO_CACHE:     318464

STLB Hit, L1D data hit: 0
STLB Hit, L2C data hit: 0
STLB Hit, LLC data hit: 0
STLB Hit, LLC data miss: 0
STLB STLB hints to L2: 0
L1D TOTAL     ACCESS:    6121115  HIT:    6121115  MISS:          0  HIT %:        100  MISS %:          0   MPKI: 0
L1D LOAD      ACCESS:    3543204  HIT:    3543204  MISS:          0  HIT %:        100  MISS %:          0   MPKI: 0
L1D RFO       ACCESS:    2577911  HIT:    2577911  MISS:          0  HIT %:        100  MISS %:          0   MPKI: 0
L1D PREFETCH  REQUESTED:          0  ISSUED:          0  USEFUL:          0  USELESS:          0
L1D USEFUL LOAD PREFETCHES:          0 PREFETCH ISSUED TO LOWER LEVEL:          0  ACCURACY: -nan
L1D TIMELY PREFETCHES:          0 LATE PREFETCHES: 0 DROPPED PREFETCHES: 0
L1D PREFETCHES SAME FILL-ORIGIN LEVEL: 0 DIFFERENT FILL-ORIGIN LEVEL: 0
L1D AVERAGE MISS LATENCY: -nan cycles
L1D RQ	ACCESS:    4736590	FORWARD:          0	MERGED:    1170585	TO_CACHE:    3543204
L1D WQ	ACCESS:    2597728	FORWARD:      22801	MERGED:      19817	TO_CACHE:    2577911

L1D UNIQUE REGIONS ACCESSED: 0
L1D REGIONS CONFLICTS: 0
L1D Cross Page Prefetch Requests: 0
L1D Same Page Prefetch Requests: 0
L1D ROI Sum of L1D PQ occupancy: 0
L1D PREFETCHES PUSHED FROM L2C: 0
L1I TOTAL     ACCESS:    4875454  HIT:    4064236  MISS:     811218  HIT %:    83.3612  MISS %:    16.6388   MPKI: 32.4487
L1I LOAD      ACCESS:    4875454  HIT:    4064236  MISS:     811218  HIT %:    83.3612  MISS %:    16.6388   MPKI: 32.4487
L1I PREFETCH  REQUESTED:          0  ISSUED:          0  USEFUL:          0  USELESS:          0
L1I USEFUL LOAD PREFETCHES:          0 PREFETCH ISSUED TO LOWER LEVEL:          0  ACCURACY: -nan
L1I TIMELY PREFETCHES:          0 LATE PREFETCHES: 0 DROPPED PREFETCHES: 0
L1I PREFETCHES SAME FILL-ORIGIN LEVEL: 0 DIFFERENT FILL-ORIGIN LEVEL: 0
L1I AVERAGE MISS LATENCY: 15.2504 cycles
L1I RQ	ACCESS:    7794407	FORWARD:          0	MERGED:    2804237	TO_CACHE:    4990170

BTB TOTAL     ACCESS:    4320196  HIT:    3230803  MISS:    1089393  HIT %:    74.7837  MISS %:    25.2163   MPKI: 43.5757
BTB BRANCH_DIRECT_JUMP	ACCESS:     226662  HIT:     152671  MISS:      73991
BTB BRANCH_INDIRECT	ACCESS:    1374264  HIT:     914639  MISS:     459625
BTB BRANCH_CONDITIONAL	ACCESS:    1698927  HIT:    1610453  MISS:      88474
BTB BRANCH_DIRECT_CALL	ACCESS:     411174  HIT:     272039  MISS:     139135
BTB BRANCH_INDIRECT_CALL	ACCESS:      98985  HIT:      52703  MISS:      46282
BTB BRANCH_RETURN	ACCESS:     510184  HIT:     228298  MISS:     281886
BTB BRANCH_OTHER ACCESS:          0  HIT:          0  MISS:          0

L2C TOTAL     ACCESS:     829313  HIT:     795217  MISS:      34096  HIT %:    95.8886  MISS %:    4.11135   MPKI: 1.36384
L2C LOAD      ACCESS:     811218  HIT:     779234  MISS:      31984  HIT %:    96.0573  MISS %:    3.94271   MPKI: 1.27936
L2C DATA LOAD MPKI: 0
L2C INSTRUCTION LOAD MPKI: 1.27936
L2C LOAD TRANSLATION ACCESS:      18095  HIT:      15983  MISS:       2112  HIT %:    88.3283  MISS %:    11.6717   MPKI: 0.08448
L2C PREFETCH  REQUESTED:          0  ISSUED:          0  USEFUL:          0  USELESS:          0
L2C USEFUL LOAD PREFETCHES:          0 PREFETCH ISSUED TO LOWER LEVEL:          0  ACCURACY: -nan
L2C TIMELY PREFETCHES:          0 LATE PREFETCHES: 0 DROPPED PREFETCHES: 0
L2C PREFETCHES SAME FILL-ORIGIN LEVEL: 0 DIFFERENT FILL-ORIGIN LEVEL: 0
L2C AVERAGE MISS LATENCY: 31.2046 cycles
L2C RQ	ACCESS:     829313	FORWARD:          0	MERGED:          0	TO_CACHE:     829313

L2C Instructions Evicting Data 0
L2C Translations Evicting Data 0
L2C Data Evicting Data 0
L2C Instructions Evicting Instructions 30536
L2C Translations Evicting Instructions 1484
L2C Data Evicting Instructions 0
L2C Instructions Evicting Translations 1441
L2C Translations Evicting Translations 525
L2C Data Evicting Translations 0
L2C Dense regions hint from L2: 0
PSCL5 TOTAL     ACCESS:      11707  HIT:      11707  MISS:          0  HIT %:        100  MISS %:          0   MPKI: 0
PSCL5 LOAD TRANSLATION ACCESS:      11707  HIT:      11707  MISS:          0  HIT %:        100  MISS %:          0   MPKI: 0
PSCL5 PREFETCH  REQUESTED:          0  ISSUED:          0  USEFUL:          0  USELESS:          0
PSCL5 USEFUL LOAD PREFETCHES:          0 PREFETCH ISSUED TO LOWER LEVEL:          0  ACCURACY: -nan
PSCL5 TIMELY PREFETCHES:          0 LATE PREFETCHES: 0 DROPPED PREFETCHES: 0
PSCL5 PREFETCHES SAME FILL-ORIGIN LEVEL: 0 DIFFERENT FILL-ORIGIN LEVEL: 0

PSCL4 TOTAL     ACCESS:      11599  HIT:      11559  MISS:         40  HIT %:    99.6551  MISS %:   0.344857   MPKI: 0.0016
PSCL4 LOAD TRANSLATION ACCESS:      11599  HIT:      11559  MISS:         40  HIT %:    99.6551  MISS %:   0.344857   MPKI: 0.0016
PSCL4 PREFETCH  REQUESTED:          0  ISSUED:          0  USEFUL:          0  USELESS:          0
PSCL4 USEFUL LOAD PREFETCHES:          0 PREFETCH ISSUED TO LOWER LEVEL:          0  ACCURACY: -nan
PSCL4 TIMELY PREFETCHES:          0 LATE PREFETCHES: 0 DROPPED PREFETCHES: 0
PSCL4 PREFETCHES SAME FILL-ORIGIN LEVEL: 0 DIFFERENT FILL-ORIGIN LEVEL: 0

PSCL3 TOTAL     ACCESS:      10690  HIT:       9040  MISS:       1650  HIT %:     84.565  MISS %:     15.435   MPKI: 0.066
PSCL3 LOAD TRANSLATION ACCESS:      10690  HIT:       9040  MISS:       1650  HIT %:     84.565  MISS %:     15.435   MPKI: 0.066
PSCL3 PREFETCH  REQUESTED:          0  ISSUED:          0  USEFUL:          0  USELESS:          0
PSCL3 USEFUL LOAD PREFETCHES:          0 PREFETCH ISSUED TO LOWER LEVEL:          0  ACCURACY: -nan
PSCL3 TIMELY PREFETCHES:          0 LATE PREFETCHES: 0 DROPPED PREFETCHES: 0
PSCL3 PREFETCHES SAME FILL-ORIGIN LEVEL: 0 DIFFERENT FILL-ORIGIN LEVEL: 0

PSCL2 TOTAL     ACCESS:      11707  HIT:       6991  MISS:       4716  HIT %:    59.7164  MISS %:    40.2836   MPKI: 0.18864
PSCL2 LOAD TRANSLATION ACCESS:      11707  HIT:       6991  MISS:       4716  HIT %:    59.7164  MISS %:    40.2836   MPKI: 0.18864
PSCL2 PREFETCH  REQUESTED:          0  ISSUED:          0  USEFUL:          0  USELESS:          0
PSCL2 USEFUL LOAD PREFETCHES:          0 PREFETCH ISSUED TO LOWER LEVEL:          0  ACCURACY: -nan
PSCL2 TIMELY PREFETCHES:          0 LATE PREFETCHES: 0 DROPPED PREFETCHES: 0
PSCL2 PREFETCHES SAME FILL-ORIGIN LEVEL: 0 DIFFERENT FILL-ORIGIN LEVEL: 0

LLC TOTAL     ACCESS:      34096  HIT:      33844  MISS:        252  HIT %:    99.2609  MISS %:    0.73909   MPKI: 0.01008
LLC LOAD      ACCESS:      31984  HIT:      31972  MISS:         12  HIT %:    99.9625  MISS %:  0.0375188   MPKI: 0.00048
LLC LOAD TRANSLATION ACCESS:       2112  HIT:       1872  MISS:        240  HIT %:    88.6364  MISS %:    11.3636   MPKI: 0.0096
LLC PREFETCH  REQUESTED:          0  ISSUED:          0  USEFUL:          0  USELESS:          0
LLC USEFUL LOAD PREFETCHES:          0 PREFETCH ISSUED TO LOWER LEVEL:          0  ACCURACY: -nan
LLC TIMELY PREFETCHES:          0 LATE PREFETCHES: 0 DROPPED PREFETCHES: 0
LLC PREFETCHES SAME FILL-ORIGIN LEVEL: 0 DIFFERENT FILL-ORIGIN LEVEL: 0
LLC AVERAGE MISS LATENCY: 162.063 cycles
LLC RQ	ACCESS:      34096	FORWARD:          0	MERGED:          0	TO_CACHE:      34096

LLC Dense regions hint to LLC: 0

RAW hits: 220594
Loads Generated: 4957184
Loads sent to L1D: 4736590
Stores Generated: 2597723
Stores sent to L1D: 2597728
Major fault: 0 Minor fault: 4418
Allocated PAGES: 4418

DRAM Statistics
 CHANNEL 0
 RQ ROW_BUFFER_HIT:         20  ROW_BUFFER_MISS:        232
 DBUS_CONGESTED:          0
 WQ ROW_BUFFER_HIT:          0  ROW_BUFFER_MISS:          0  FULL:          0

 AVG_CONGESTED_CYCLE: -
 All warmup complete: 2
Channel 0 Bank busy for read cycles: 0
Channel 0 Bank busy for write cycles: 0
Channel 0
Rank 0
0banks busy for read cycles: 63355934
0banks busy for write cycles: 0
1banks busy for read cycles: 35800
1banks busy for write cycles: 0
2banks busy for read cycles: 0
2banks busy for write cycles: 0
3banks busy for read cycles: 0
3banks busy for write cycles: 0
4banks busy for read cycles: 0
4banks busy for write cycles: 0
5banks busy for read cycles: 0
5banks busy for write cycles: 0
6banks busy for read cycles: 0
6banks busy for write cycles: 0
7banks busy for read cycles: 0
7banks busy for write cycles: 0
8banks busy for read cycles: 0
8banks busy for write cycles: 0

CPU 0 Branch Prediction Accuracy: 99.6386% MPKI: 0.69728 Average ROB Occupancy at Mispredict: 10.5535
Branch types
NOT_BRANCH: 20175581 80.7023%
BRANCH_DIRECT_JUMP: 226662 0.906648%
BRANCH_INDIRECT: 1374264 5.49706%
BRANCH_CONDITIONAL: 2202828 8.81131%
BRANCH_DIRECT_CALL: 411174 1.6447%
BRANCH_INDIRECT_CALL: 98985 0.39594%
BRANCH_RETURN: 510184 2.04074%
BRANCH_OTHER: 0 0%

DRAM PAGES: 1048576
Allocated PAGES: 4418
