
*** ChampSim Multicore Out-of-Order Simulator ***

Warmup Instructions: 50000000
Simulation Instructions: 200000000
Number of CPUs: 1
LLC sets: 2048
LLC ways: 16
Off-chip DRAM Size: 4096 MB Channels: 1 Width: 64-bit Data Rate: 6400 MT/s
CPU 0 runs traces/spec2k17/client_008.champsimtrace.xz
.xz
BTB has LRU replacement policy
ITLB has LRU replacement policy
DTLB has LRU replacement policy
STLB has LRU replacement policy
L1I has LRU replacement policy
L1D has LRU replacement policy
Initialize SRRIP state for L2C
Initialize DRRIP state for LLC
Heartbeat CPU 0 instructions: 10000000 cycles: 2912874 heartbeat IPC: 3.43304 cumulative IPC: 3.43304 (Simulation time: 0 hr 1 min 15 sec) 
Heartbeat CPU 0 instructions: 20000001 cycles: 5845357 heartbeat IPC: 3.41008 cumulative IPC: 3.42152 (Simulation time: 0 hr 2 min 33 sec) 
Heartbeat CPU 0 instructions: 30000001 cycles: 8753796 heartbeat IPC: 3.43827 cumulative IPC: 3.42708 (Simulation time: 0 hr 3 min 49 sec) 
Heartbeat CPU 0 instructions: 40000003 cycles: 11688882 heartbeat IPC: 3.40706 cumulative IPC: 3.42206 (Simulation time: 0 hr 5 min 7 sec) 
Heartbeat CPU 0 instructions: 50000002 cycles: 14619941 heartbeat IPC: 3.41174 cumulative IPC: 3.41999 (Simulation time: 0 hr 6 min 24 sec) 

Warmup complete CPU 0 instructions: 50000002 cycles: 14619941 (Simulation time: 0 hr 6 min 24 sec) 

Heartbeat CPU 0 instructions: 60000001 cycles: 35786850 heartbeat IPC: 0.472435 cumulative IPC: 0.472435 (Simulation time: 0 hr 7 min 46 sec) 
Heartbeat CPU 0 instructions: 70000000 cycles: 56624070 heartbeat IPC: 0.47991 cumulative IPC: 0.476144 (Simulation time: 0 hr 9 min 13 sec) 
Heartbeat CPU 0 instructions: 80000000 cycles: 78157391 heartbeat IPC: 0.464397 cumulative IPC: 0.472162 (Simulation time: 0 hr 10 min 38 sec) 
Heartbeat CPU 0 instructions: 90000003 cycles: 107536313 heartbeat IPC: 0.34038 cumulative IPC: 0.430495 (Simulation time: 0 hr 11 min 57 sec) 
Heartbeat CPU 0 instructions: 100000001 cycles: 124428559 heartbeat IPC: 0.591987 cumulative IPC: 0.455338 (Simulation time: 0 hr 13 min 6 sec) 
*** Reached end of trace for Core: 0 Repeating trace: traces/spec2k17/client_008.champsimtrace.xz
Heartbeat CPU 0 instructions: 110000000 cycles: 145910549 heartbeat IPC: 0.465506 cumulative IPC: 0.457001 (Simulation time: 0 hr 14 min 30 sec) 
Heartbeat CPU 0 instructions: 120000001 cycles: 168191901 heartbeat IPC: 0.448806 cumulative IPC: 0.455812 (Simulation time: 0 hr 15 min 57 sec) 
Heartbeat CPU 0 instructions: 130000000 cycles: 191752572 heartbeat IPC: 0.424436 cumulative IPC: 0.451639 (Simulation time: 0 hr 17 min 16 sec) 
Heartbeat CPU 0 instructions: 140000002 cycles: 214041429 heartbeat IPC: 0.448655 cumulative IPC: 0.451305 (Simulation time: 0 hr 18 min 39 sec) 
Heartbeat CPU 0 instructions: 150000001 cycles: 237221936 heartbeat IPC: 0.431397 cumulative IPC: 0.449232 (Simulation time: 0 hr 19 min 59 sec) 
Heartbeat CPU 0 instructions: 160000000 cycles: 259139927 heartbeat IPC: 0.456246 cumulative IPC: 0.449861 (Simulation time: 0 hr 21 min 21 sec) 
Heartbeat CPU 0 instructions: 170000000 cycles: 279748096 heartbeat IPC: 0.485244 cumulative IPC: 0.452611 (Simulation time: 0 hr 22 min 45 sec) 
Heartbeat CPU 0 instructions: 180000000 cycles: 299251442 heartbeat IPC: 0.512733 cumulative IPC: 0.456731 (Simulation time: 0 hr 24 min 3 sec) 
Heartbeat CPU 0 instructions: 190000001 cycles: 329406250 heartbeat IPC: 0.331622 cumulative IPC: 0.444746 (Simulation time: 0 hr 25 min 25 sec) 
Heartbeat CPU 0 instructions: 200000000 cycles: 349303458 heartbeat IPC: 0.502583 cumulative IPC: 0.448185 (Simulation time: 0 hr 26 min 37 sec) 
*** Reached end of trace for Core: 0 Repeating trace: traces/spec2k17/client_008.champsimtrace.xz
Heartbeat CPU 0 instructions: 210000001 cycles: 367796587 heartbeat IPC: 0.540741 cumulative IPC: 0.453031 (Simulation time: 0 hr 27 min 50 sec) 
Heartbeat CPU 0 instructions: 220000000 cycles: 390570496 heartbeat IPC: 0.439099 cumulative IPC: 0.452187 (Simulation time: 0 hr 29 min 14 sec) 
Heartbeat CPU 0 instructions: 230000003 cycles: 413408470 heartbeat IPC: 0.437867 cumulative IPC: 0.451367 (Simulation time: 0 hr 30 min 29 sec) 
Heartbeat CPU 0 instructions: 240000002 cycles: 436174891 heartbeat IPC: 0.439243 cumulative IPC: 0.450712 (Simulation time: 0 hr 31 min 47 sec) 
Heartbeat CPU 0 instructions: 250000002 cycles: 459032710 heartbeat IPC: 0.437487 cumulative IPC: 0.450032 (Simulation time: 0 hr 33 min 10 sec) 
Finished CPU 0 instructions: 200000000 cycles: 444412769 cumulative IPC: 0.450032 (Simulation time: 0 hr 33 min 10 sec) 

ChampSim completed all CPUs

Region of Interest Statistics

CPU 0 cumulative IPC: 0.450032 instructions: 200000000 cycles: 444412769
ITLB TOTAL     ACCESS:   33952621  HIT:   32953339  MISS:     999282  HIT %:    97.0568  MISS %:    2.94317   MPKI: 4.99641
ITLB LOAD TRANSLATION ACCESS:   33952621  HIT:   32953339  MISS:     999282  HIT %:    97.0568  MISS %:    2.94317   MPKI: 4.99641
ITLB PREFETCH  REQUESTED:          0  ISSUED:          0  USEFUL:          0  USELESS:          0
ITLB USEFUL LOAD PREFETCHES:          0 PREFETCH ISSUED TO LOWER LEVEL:          0  ACCURACY: -nan
ITLB TIMELY PREFETCHES:          0 LATE PREFETCHES: 0 DROPPED PREFETCHES: 0
ITLB PREFETCHES SAME FILL-ORIGIN LEVEL: 0 DIFFERENT FILL-ORIGIN LEVEL: 0
ITLB AVERAGE MISS LATENCY: 9.48562 cycles
ITLB RQ	ACCESS:   38136598	FORWARD:          0	MERGED:    3935116	TO_CACHE:   34201482

DTLB TOTAL     ACCESS:   44496599  HIT:   41449592  MISS:    3047007  HIT %:    93.1523  MISS %:    6.84773   MPKI: 15.235
DTLB LOAD TRANSLATION ACCESS:   44496599  HIT:   41449592  MISS:    3047007  HIT %:    93.1523  MISS %:    6.84773   MPKI: 15.235
DTLB PREFETCH  REQUESTED:          0  ISSUED:          0  USEFUL:          0  USELESS:          0
DTLB USEFUL LOAD PREFETCHES:          0 PREFETCH ISSUED TO LOWER LEVEL:          0  ACCURACY: -nan
DTLB TIMELY PREFETCHES:          0 LATE PREFETCHES: 0 DROPPED PREFETCHES: 0
DTLB PREFETCHES SAME FILL-ORIGIN LEVEL: 0 DIFFERENT FILL-ORIGIN LEVEL: 0
DTLB AVERAGE MISS LATENCY: 9.45756 cycles
DTLB RQ	ACCESS:   54677535	FORWARD:          0	MERGED:   10089933	TO_CACHE:   44587602

STLB TOTAL     ACCESS:    4434790  HIT:    4403162  MISS:      31628  HIT %:    99.2868  MISS %:   0.713179   MPKI: 0.15814
STLB LOAD TRANSLATION ACCESS:    4046289  HIT:    4015026  MISS:      31263  HIT %:    99.2274  MISS %:   0.772634   MPKI: 0.156315
STLB TRANSLATION FROM L1D PREFETCHER ACCESS:     388501  HIT:     388136  MISS:        365  HIT %:     99.906  MISS %:  0.0939509   MPKI: 0.001825
STLB PREFETCH  REQUESTED:          0  ISSUED:          0  USEFUL:        335  USELESS:         30
STLB USEFUL LOAD PREFETCHES:        335 PREFETCH ISSUED TO LOWER LEVEL:          0  ACCURACY: inf
STLB TIMELY PREFETCHES:        335 LATE PREFETCHES: 31 DROPPED PREFETCHES: 7025
STLB PREFETCHES SAME FILL-ORIGIN LEVEL: 0 DIFFERENT FILL-ORIGIN LEVEL: 0
STLB AVERAGE MISS LATENCY: 58.484 cycles
STLB RQ	ACCESS:    4502134	FORWARD:          0	MERGED:      58956	TO_CACHE:    4443178

STLB Hit, L1D data hit: 0
STLB Hit, L2C data hit: 0
STLB Hit, LLC data hit: 0
STLB Hit, LLC data miss: 0
STLB STLB hints to L2: 0
L1D TOTAL     ACCESS:   53733768  HIT:   49972245  MISS:    3761523  HIT %:    92.9997  MISS %:     7.0003   MPKI: 18.8076
L1D LOAD      ACCESS:   37790143  HIT:   34414710  MISS:    3375433  HIT %:     91.068  MISS %:    8.93205   MPKI: 16.8772
L1D RFO       ACCESS:   15537410  HIT:   15194295  MISS:     343115  HIT %:    97.7917  MISS %:    2.20832   MPKI: 1.71558
L1D PREFETCH  ACCESS:     406215  HIT:     363240  MISS:      42975  HIT %:    89.4206  MISS %:    10.5794   MPKI: 0.214875
AGUS PREFETCH L1 MISS: 0
L1D PREFETCH  REQUESTED:    1352827  ISSUED:    1352827  USEFUL:      16263  USELESS:      26728
L1D USEFUL LOAD PREFETCHES:      16263 PREFETCH ISSUED TO LOWER LEVEL:      53893  ACCURACY: 30.1765
L1D TIMELY PREFETCHES:      16263 LATE PREFETCHES: 10911 DROPPED PREFETCHES: 12962
L1D PREFETCHES SAME FILL-ORIGIN LEVEL: 53893 DIFFERENT FILL-ORIGIN LEVEL: 0
L1D AVERAGE MISS LATENCY: 672794 cycles
L1D RQ	ACCESS:   56708043	FORWARD:          0	MERGED:   18423329	TO_CACHE:   38031044
L1D WQ	ACCESS:   17136260	FORWARD:     253827	MERGED:     489769	TO_CACHE:   16646491
L1D PQ	ACCESS:     896982	FORWARD:          0	MERGED:     440980	TO_CACHE:     455845

L1D UNIQUE REGIONS ACCESSED: 0
L1D REGIONS CONFLICTS: 0
L1D Cross Page Prefetch Requests: 608552
L1D Same Page Prefetch Requests: 796983
L1D ROI Sum of L1D PQ occupancy: 6596941
L1D PREFETCHES PUSHED FROM L2C: 0
L1I TOTAL     ACCESS:   37104059  HIT:   32806185  MISS:    4297874  HIT %:    88.4167  MISS %:    11.5833   MPKI: 21.4894
L1I LOAD      ACCESS:   37104059  HIT:   32806185  MISS:    4297874  HIT %:    88.4167  MISS %:    11.5833   MPKI: 21.4894
L1I PREFETCH  REQUESTED:          0  ISSUED:          0  USEFUL:          0  USELESS:          0
L1I USEFUL LOAD PREFETCHES:          0 PREFETCH ISSUED TO LOWER LEVEL:          0  ACCURACY: -nan
L1I TIMELY PREFETCHES:          0 LATE PREFETCHES: 0 DROPPED PREFETCHES: 0
L1I PREFETCHES SAME FILL-ORIGIN LEVEL: 0 DIFFERENT FILL-ORIGIN LEVEL: 0
L1I AVERAGE MISS LATENCY: 17.6356 cycles
L1I RQ	ACCESS:   62297282	FORWARD:          0	MERGED:   24160684	TO_CACHE:   38136598

BTB TOTAL     ACCESS:   36528429  HIT:   31583049  MISS:    4945380  HIT %:    86.4616  MISS %:    13.5384   MPKI: 24.7269
BTB BRANCH_DIRECT_JUMP	ACCESS:    2061309  HIT:    1966278  MISS:      95031
BTB BRANCH_INDIRECT	ACCESS:   13234606  HIT:   11716494  MISS:    1518112
BTB BRANCH_CONDITIONAL	ACCESS:   12402841  HIT:   12111408  MISS:     291433
BTB BRANCH_DIRECT_CALL	ACCESS:    1759418  HIT:    1715408  MISS:      44010
BTB BRANCH_INDIRECT_CALL	ACCESS:    2655183  HIT:    2016702  MISS:     638481
BTB BRANCH_RETURN	ACCESS:    4415072  HIT:    2056759  MISS:    2358313
BTB BRANCH_OTHER ACCESS:          0  HIT:          0  MISS:          0

L2C TOTAL     ACCESS:    8594687  HIT:    7511033  MISS:    1083654  HIT %:    87.3916  MISS %:    12.6084   MPKI: 5.41827
L2C LOAD      ACCESS:    7662386  HIT:    6873610  MISS:     788776  HIT %:    89.7059  MISS %:    10.2941   MPKI: 3.94388
L2C DATA LOAD MPKI: 2.69433
L2C INSTRUCTION LOAD MPKI: 1.24955
L2C RFO       ACCESS:     343094  HIT:      78702  MISS:     264392  HIT %:    22.9389  MISS %:    77.0611   MPKI: 1.32196
L2C PREFETCH  ACCESS:      53893  HIT:      44669  MISS:       9224  HIT %:    82.8846  MISS %:    17.1154   MPKI: 0.04612
AGUS PREFETCH L1 MISS: 0
L2C DATA PREFETCH MPKI: 0.04612
L2C INSTRUCTION PREFETCH MPKI: 0
L2C WRITEBACK ACCESS:     493104  HIT:     484593  MISS:       8511  HIT %:     98.274  MISS %:    1.72601   MPKI: 0.042555
L2C LOAD TRANSLATION ACCESS:      32815  HIT:      20535  MISS:      12280  HIT %:    62.5781  MISS %:    37.4219   MPKI: 0.0614
L2C TRANSLATION FROM L1D PREFETCHER ACCESS:       9395  HIT:       8924  MISS:        471  HIT %:    94.9867  MISS %:     5.0133   MPKI: 0.002355
L2C PREFETCH  REQUESTED:          0  ISSUED:          0  USEFUL:        713  USELESS:       9020
L2C USEFUL LOAD PREFETCHES:        713 PREFETCH ISSUED TO LOWER LEVEL:       9224  ACCURACY: 7.72984
L2C TIMELY PREFETCHES:        713 LATE PREFETCHES: 0 DROPPED PREFETCHES: 0
L2C PREFETCHES SAME FILL-ORIGIN LEVEL: 0 DIFFERENT FILL-ORIGIN LEVEL: 0
L2C AVERAGE MISS LATENCY: 91.9912 cycles
L2C RQ	ACCESS:    8047715	FORWARD:          0	MERGED:          0	TO_CACHE:    8047691
L2C WQ	ACCESS:     493104	FORWARD:         24	MERGED:          0	TO_CACHE:     493104
L2C PQ	ACCESS:      53893	FORWARD:          0	MERGED:          0	TO_CACHE:      53893

L2C Instructions Evicting Data 154522
L2C Translations Evicting Data 8415
L2C Data Evicting Data 651845
L2C Instructions Evicting Instructions 90992
L2C Translations Evicting Instructions 4094
L2C Data Evicting Instructions 152623
L2C Instructions Evicting Translations 4396
L2C Translations Evicting Translations 242
L2C Data Evicting Translations 8014
L2C Dense regions hint from L2: 0
PSCL5 TOTAL     ACCESS:      38658  HIT:      38658  MISS:          0  HIT %:        100  MISS %:          0   MPKI: 0
PSCL5 LOAD TRANSLATION ACCESS:      31237  HIT:      31237  MISS:          0  HIT %:        100  MISS %:          0   MPKI: 0
PSCL5 TRANSLATION FROM L1D PREFETCHER ACCESS:       7421  HIT:       7421  MISS:          0  HIT %:        100  MISS %:          0   MPKI: 0
PSCL5 PREFETCH  REQUESTED:          0  ISSUED:          0  USEFUL:          0  USELESS:          0
PSCL5 USEFUL LOAD PREFETCHES:          0 PREFETCH ISSUED TO LOWER LEVEL:          0  ACCURACY: -nan
PSCL5 TIMELY PREFETCHES:          0 LATE PREFETCHES: 0 DROPPED PREFETCHES: 0
PSCL5 PREFETCHES SAME FILL-ORIGIN LEVEL: 0 DIFFERENT FILL-ORIGIN LEVEL: 0

PSCL4 TOTAL     ACCESS:      38567  HIT:      38567  MISS:          0  HIT %:        100  MISS %:          0   MPKI: 0
PSCL4 LOAD TRANSLATION ACCESS:      31237  HIT:      31237  MISS:          0  HIT %:        100  MISS %:          0   MPKI: 0
PSCL4 TRANSLATION FROM L1D PREFETCHER ACCESS:       7330  HIT:       7330  MISS:          0  HIT %:        100  MISS %:          0   MPKI: 0
PSCL4 PREFETCH  REQUESTED:          0  ISSUED:          0  USEFUL:          0  USELESS:          0
PSCL4 USEFUL LOAD PREFETCHES:          0 PREFETCH ISSUED TO LOWER LEVEL:          0  ACCURACY: -nan
PSCL4 TIMELY PREFETCHES:          0 LATE PREFETCHES: 0 DROPPED PREFETCHES: 0
PSCL4 PREFETCHES SAME FILL-ORIGIN LEVEL: 0 DIFFERENT FILL-ORIGIN LEVEL: 0

PSCL3 TOTAL     ACCESS:      33732  HIT:      33692  MISS:         40  HIT %:    99.8814  MISS %:   0.118582   MPKI: 0.0002
PSCL3 LOAD TRANSLATION ACCESS:      31141  HIT:      31101  MISS:         40  HIT %:    99.8716  MISS %:   0.128448   MPKI: 0.0002
PSCL3 TRANSLATION FROM L1D PREFETCHER ACCESS:       2591  HIT:       2591  MISS:          0  HIT %:        100  MISS %:          0   MPKI: 0
PSCL3 PREFETCH  REQUESTED:          0  ISSUED:          0  USEFUL:          0  USELESS:          0
PSCL3 USEFUL LOAD PREFETCHES:          0 PREFETCH ISSUED TO LOWER LEVEL:          0  ACCURACY: -nan
PSCL3 TIMELY PREFETCHES:          0 LATE PREFETCHES: 0 DROPPED PREFETCHES: 0
PSCL3 PREFETCHES SAME FILL-ORIGIN LEVEL: 0 DIFFERENT FILL-ORIGIN LEVEL: 0

PSCL2 TOTAL     ACCESS:      31913  HIT:      30351  MISS:       1562  HIT %:    95.1054  MISS %:    4.89456   MPKI: 0.00781
PSCL2 LOAD TRANSLATION ACCESS:      31254  HIT:      29692  MISS:       1562  HIT %:    95.0022  MISS %:    4.99776   MPKI: 0.00781
PSCL2 TRANSLATION FROM L1D PREFETCHER ACCESS:        659  HIT:        659  MISS:          0  HIT %:        100  MISS %:          0   MPKI: 0
PSCL2 PREFETCH  REQUESTED:          0  ISSUED:          0  USEFUL:          0  USELESS:          0
PSCL2 USEFUL LOAD PREFETCHES:          0 PREFETCH ISSUED TO LOWER LEVEL:          0  ACCURACY: -nan
PSCL2 TIMELY PREFETCHES:          0 LATE PREFETCHES: 0 DROPPED PREFETCHES: 0
PSCL2 PREFETCHES SAME FILL-ORIGIN LEVEL: 0 DIFFERENT FILL-ORIGIN LEVEL: 0

LLC TOTAL     ACCESS:    1397898  HIT:     921018  MISS:     476880  HIT %:    65.8859  MISS %:    34.1141   MPKI: 2.3844
LLC LOAD      ACCESS:     788776  HIT:     578790  MISS:     209986  HIT %:    73.3782  MISS %:    26.6218   MPKI: 1.04993
LLC RFO       ACCESS:     264392  HIT:      18725  MISS:     245667  HIT %:    7.08229  MISS %:    92.9177   MPKI: 1.22833
LLC PREFETCH  ACCESS:       9224  HIT:       2743  MISS:       6481  HIT %:    29.7376  MISS %:    70.2624   MPKI: 0.032405
AGUS PREFETCH L1 MISS: 0
LLC WRITEBACK ACCESS:     322755  HIT:     311603  MISS:      11152  HIT %:    96.5447  MISS %:    3.45525   MPKI: 0.05576
LLC LOAD TRANSLATION ACCESS:      12280  HIT:       8772  MISS:       3508  HIT %:    71.4332  MISS %:    28.5668   MPKI: 0.01754
LLC TRANSLATION FROM L1D PREFETCHER ACCESS:        471  HIT:        385  MISS:         86  HIT %:     81.741  MISS %:     18.259   MPKI: 0.00043
LLC PREFETCH  REQUESTED:          0  ISSUED:          0  USEFUL:        194  USELESS:       6102
LLC USEFUL LOAD PREFETCHES:        194 PREFETCH ISSUED TO LOWER LEVEL:       6481  ACCURACY: 2.99337
LLC TIMELY PREFETCHES:        194 LATE PREFETCHES: 0 DROPPED PREFETCHES: 0
LLC PREFETCHES SAME FILL-ORIGIN LEVEL: 0 DIFFERENT FILL-ORIGIN LEVEL: 0
LLC AVERAGE MISS LATENCY: 141.321 cycles
LLC RQ	ACCESS:    1065919	FORWARD:          0	MERGED:          0	TO_CACHE:    1065919
LLC WQ	ACCESS:     322755	FORWARD:          0	MERGED:          0	TO_CACHE:     322755
LLC PQ	ACCESS:       9224	FORWARD:          0	MERGED:          0	TO_CACHE:       9224

LLC Dense regions hint to LLC: 0

RAW hits: 3385505
Loads Generated: 60093550
Loads sent to L1D: 56708043
Stores Generated: 17136254
Stores sent to L1D: 17136260
Major fault: 0 Minor fault: 5379
Allocated PAGES: 5379

DRAM Statistics
 CHANNEL 0
 RQ ROW_BUFFER_HIT:     132058  ROW_BUFFER_MISS:     333662
 DBUS_CONGESTED:        163
 WQ ROW_BUFFER_HIT:      48123  ROW_BUFFER_MISS:     218244  FULL:          0

 AVG_CONGESTED_CYCLE: 4
 All warmup complete: 2
Channel 0 Bank busy for read cycles: 0
Channel 0 Bank busy for write cycles: 0
Channel 0
Rank 0
0banks busy for read cycles: 369911955
0banks busy for write cycles: 136389
1banks busy for read cycles: 37771015
1banks busy for write cycles: 19867444
2banks busy for read cycles: 5805819
2banks busy for write cycles: 4957251
3banks busy for read cycles: 892786
3banks busy for write cycles: 1658298
4banks busy for read cycles: 378124
4banks busy for write cycles: 745585
5banks busy for read cycles: 101614
5banks busy for write cycles: 428996
6banks busy for read cycles: 83119
6banks busy for write cycles: 318122
7banks busy for read cycles: 83543
7banks busy for write cycles: 304859
8banks busy for read cycles: 187511
8banks busy for write cycles: 780340

CPU 0 Branch Prediction Accuracy: 99.1917% MPKI: 1.85351 Average ROB Occupancy at Mispredict: 22.0362
Branch types
NOT_BRANCH: 154137311 77.0687%
BRANCH_DIRECT_JUMP: 2061309 1.03065%
BRANCH_INDIRECT: 13234606 6.6173%
BRANCH_CONDITIONAL: 21736759 10.8684%
BRANCH_DIRECT_CALL: 1759418 0.879709%
BRANCH_INDIRECT_CALL: 2655183 1.32759%
BRANCH_RETURN: 4415072 2.20754%
BRANCH_OTHER: 0 0%

DRAM PAGES: 1048576
Allocated PAGES: 5379
