
*** ChampSim Multicore Out-of-Order Simulator ***

Warmup Instructions: 50000000
Simulation Instructions: 200000000
Number of CPUs: 1
LLC sets: 2048
LLC ways: 16
Off-chip DRAM Size: 4096 MB Channels: 1 Width: 64-bit Data Rate: 6400 MT/s
CPU 0 runs traces/spec2k17/server_033.champsimtrace.xz
.xz
BTB has LRU replacement policy
ITLB has LRU replacement policy
DTLB has LRU replacement policy
STLB has LRU replacement policy
L1I has LRU replacement policy
L1D has LRU replacement policy
Initialize SRRIP state for L2C
Initialize DRRIP state for LLC
Heartbeat CPU 0 instructions: 10000000 cycles: 2855102 heartbeat IPC: 3.5025 cumulative IPC: 3.5025 (Simulation time: 0 hr 1 min 1 sec) 
Heartbeat CPU 0 instructions: 20000002 cycles: 5706375 heartbeat IPC: 3.50721 cumulative IPC: 3.50485 (Simulation time: 0 hr 2 min 4 sec) 
Heartbeat CPU 0 instructions: 30000003 cycles: 8552788 heartbeat IPC: 3.51319 cumulative IPC: 3.50763 (Simulation time: 0 hr 3 min 4 sec) 
Heartbeat CPU 0 instructions: 40000002 cycles: 11404413 heartbeat IPC: 3.50677 cumulative IPC: 3.50741 (Simulation time: 0 hr 4 min 6 sec) 
Heartbeat CPU 0 instructions: 50000002 cycles: 14255527 heartbeat IPC: 3.5074 cumulative IPC: 3.50741 (Simulation time: 0 hr 5 min 8 sec) 

Warmup complete CPU 0 instructions: 50000002 cycles: 14255527 (Simulation time: 0 hr 5 min 8 sec) 

Heartbeat CPU 0 instructions: 60000000 cycles: 40945878 heartbeat IPC: 0.374667 cumulative IPC: 0.374667 (Simulation time: 0 hr 6 min 35 sec) 
Heartbeat CPU 0 instructions: 70000000 cycles: 67395209 heartbeat IPC: 0.378081 cumulative IPC: 0.376367 (Simulation time: 0 hr 7 min 57 sec) 
Heartbeat CPU 0 instructions: 80000003 cycles: 93856163 heartbeat IPC: 0.377915 cumulative IPC: 0.376881 (Simulation time: 0 hr 9 min 19 sec) 
Heartbeat CPU 0 instructions: 90000001 cycles: 120857559 heartbeat IPC: 0.370351 cumulative IPC: 0.375227 (Simulation time: 0 hr 10 min 43 sec) 
Heartbeat CPU 0 instructions: 100000002 cycles: 147249639 heartbeat IPC: 0.378902 cumulative IPC: 0.375957 (Simulation time: 0 hr 12 min 6 sec) 
*** Reached end of trace for Core: 0 Repeating trace: traces/spec2k17/server_033.champsimtrace.xz
Heartbeat CPU 0 instructions: 110000000 cycles: 173769466 heartbeat IPC: 0.377076 cumulative IPC: 0.376143 (Simulation time: 0 hr 13 min 30 sec) 
Heartbeat CPU 0 instructions: 120000003 cycles: 200184683 heartbeat IPC: 0.37857 cumulative IPC: 0.376487 (Simulation time: 0 hr 14 min 49 sec) 
Heartbeat CPU 0 instructions: 130000000 cycles: 226582582 heartbeat IPC: 0.378818 cumulative IPC: 0.376777 (Simulation time: 0 hr 16 min 3 sec) 
Heartbeat CPU 0 instructions: 140000003 cycles: 253489555 heartbeat IPC: 0.371651 cumulative IPC: 0.376201 (Simulation time: 0 hr 17 min 21 sec) 
Heartbeat CPU 0 instructions: 150000000 cycles: 279905753 heartbeat IPC: 0.378556 cumulative IPC: 0.376435 (Simulation time: 0 hr 18 min 36 sec) 
Heartbeat CPU 0 instructions: 160000000 cycles: 306443972 heartbeat IPC: 0.376815 cumulative IPC: 0.376469 (Simulation time: 0 hr 20 min 1 sec) 
Heartbeat CPU 0 instructions: 170000001 cycles: 332867337 heartbeat IPC: 0.378453 cumulative IPC: 0.376634 (Simulation time: 0 hr 21 min 16 sec) 
Heartbeat CPU 0 instructions: 180000001 cycles: 359299557 heartbeat IPC: 0.378326 cumulative IPC: 0.376763 (Simulation time: 0 hr 22 min 38 sec) 
Heartbeat CPU 0 instructions: 190000002 cycles: 386100605 heartbeat IPC: 0.37312 cumulative IPC: 0.376501 (Simulation time: 0 hr 23 min 54 sec) 
Heartbeat CPU 0 instructions: 200000003 cycles: 412576914 heartbeat IPC: 0.377696 cumulative IPC: 0.37658 (Simulation time: 0 hr 25 min 17 sec) 
*** Reached end of trace for Core: 0 Repeating trace: traces/spec2k17/server_033.champsimtrace.xz
Heartbeat CPU 0 instructions: 210000000 cycles: 438980229 heartbeat IPC: 0.37874 cumulative IPC: 0.376715 (Simulation time: 0 hr 26 min 35 sec) 
Heartbeat CPU 0 instructions: 220000000 cycles: 465442907 heartbeat IPC: 0.377891 cumulative IPC: 0.376784 (Simulation time: 0 hr 27 min 56 sec) 
Heartbeat CPU 0 instructions: 230000001 cycles: 491820559 heartbeat IPC: 0.379109 cumulative IPC: 0.376912 (Simulation time: 0 hr 29 min 15 sec) 
Heartbeat CPU 0 instructions: 240000001 cycles: 518556117 heartbeat IPC: 0.374034 cumulative IPC: 0.376759 (Simulation time: 0 hr 30 min 32 sec) 
Heartbeat CPU 0 instructions: 250000002 cycles: 545022790 heartbeat IPC: 0.377834 cumulative IPC: 0.376813 (Simulation time: 0 hr 31 min 54 sec) 
Finished CPU 0 instructions: 200000000 cycles: 530767263 cumulative IPC: 0.376813 (Simulation time: 0 hr 31 min 54 sec) 

ChampSim completed all CPUs

Region of Interest Statistics

CPU 0 cumulative IPC: 0.376813 instructions: 200000000 cycles: 530767263
ITLB TOTAL     ACCESS:   35642513  HIT:   33616379  MISS:    2026134  HIT %:    94.3154  MISS %:     5.6846   MPKI: 10.1307
ITLB LOAD TRANSLATION ACCESS:   35642513  HIT:   33616379  MISS:    2026134  HIT %:    94.3154  MISS %:     5.6846   MPKI: 10.1307
ITLB PREFETCH  REQUESTED:          0  ISSUED:          0  USEFUL:          0  USELESS:          0
ITLB USEFUL LOAD PREFETCHES:          0 PREFETCH ISSUED TO LOWER LEVEL:          0  ACCURACY: -nan
ITLB TIMELY PREFETCHES:          0 LATE PREFETCHES: 0 DROPPED PREFETCHES: 0
ITLB PREFETCHES SAME FILL-ORIGIN LEVEL: 0 DIFFERENT FILL-ORIGIN LEVEL: 0
ITLB AVERAGE MISS LATENCY: 9.04024 cycles
ITLB RQ	ACCESS:   41305757	FORWARD:          0	MERGED:    5209704	TO_CACHE:   36096053

DTLB TOTAL     ACCESS:   39368463  HIT:   37667399  MISS:    1701064  HIT %:    95.6791  MISS %:    4.32088   MPKI: 8.50532
DTLB LOAD TRANSLATION ACCESS:   39368463  HIT:   37667399  MISS:    1701064  HIT %:    95.6791  MISS %:    4.32088   MPKI: 8.50532
DTLB PREFETCH  REQUESTED:          0  ISSUED:          0  USEFUL:          0  USELESS:          0
DTLB USEFUL LOAD PREFETCHES:          0 PREFETCH ISSUED TO LOWER LEVEL:          0  ACCURACY: -nan
DTLB TIMELY PREFETCHES:          0 LATE PREFETCHES: 0 DROPPED PREFETCHES: 0
DTLB PREFETCHES SAME FILL-ORIGIN LEVEL: 0 DIFFERENT FILL-ORIGIN LEVEL: 0
DTLB AVERAGE MISS LATENCY: 9.34896 cycles
DTLB RQ	ACCESS:   55009068	FORWARD:          0	MERGED:   15551362	TO_CACHE:   39457706

STLB TOTAL     ACCESS:    5195852  HIT:    5178834  MISS:      17018  HIT %:    99.6725  MISS %:    0.32753   MPKI: 0.08509
STLB LOAD TRANSLATION ACCESS:    3727198  HIT:    3710445  MISS:      16753  HIT %:    99.5505  MISS %:    0.44948   MPKI: 0.083765
STLB TRANSLATION FROM L1D PREFETCHER ACCESS:    1468654  HIT:    1468389  MISS:        265  HIT %:     99.982  MISS %:  0.0180437   MPKI: 0.001325
STLB PREFETCH  REQUESTED:          0  ISSUED:          0  USEFUL:        109  USELESS:        173
STLB USEFUL LOAD PREFETCHES:        109 PREFETCH ISSUED TO LOWER LEVEL:          0  ACCURACY: inf
STLB TIMELY PREFETCHES:        109 LATE PREFETCHES: 0 DROPPED PREFETCHES: 645258
STLB PREFETCHES SAME FILL-ORIGIN LEVEL: 0 DIFFERENT FILL-ORIGIN LEVEL: 0
STLB AVERAGE MISS LATENCY: 42.4773 cycles
STLB RQ	ACCESS:    7041083	FORWARD:          0	MERGED:    1177788	TO_CACHE:    5863295

STLB Hit, L1D data hit: 0
STLB Hit, L2C data hit: 0
STLB Hit, LLC data hit: 0
STLB Hit, LLC data miss: 0
STLB STLB hints to L2: 0
L1D TOTAL     ACCESS:   57076489  HIT:   54174213  MISS:    2902276  HIT %:    94.9151  MISS %:    5.08489   MPKI: 14.5114
L1D LOAD      ACCESS:   30244027  HIT:   28009425  MISS:    2234602  HIT %:    92.6114  MISS %:    7.38857   MPKI: 11.173
L1D RFO       ACCESS:   24308003  HIT:   23890696  MISS:     417307  HIT %:    98.2833  MISS %:    1.71675   MPKI: 2.08654
L1D PREFETCH  ACCESS:    2524459  HIT:    2274092  MISS:     250367  HIT %:    90.0824  MISS %:    9.91765   MPKI: 1.25184
AGUS PREFETCH L1 MISS: 0
L1D PREFETCH  REQUESTED:   24051484  ISSUED:   22922446  USEFUL:      53892  USELESS:     196513
L1D USEFUL LOAD PREFETCHES:      53892 PREFETCH ISSUED TO LOWER LEVEL:     259626  ACCURACY: 20.7576
L1D TIMELY PREFETCHES:      53892 LATE PREFETCHES: 9258 DROPPED PREFETCHES: 769220
L1D PREFETCHES SAME FILL-ORIGIN LEVEL: 259626 DIFFERENT FILL-ORIGIN LEVEL: 0
L1D AVERAGE MISS LATENCY: 951022 cycles
L1D RQ	ACCESS:   43353110	FORWARD:          0	MERGED:   12698892	TO_CACHE:   30308921
L1D WQ	ACCESS:   24964815	FORWARD:     346435	MERGED:     264668	TO_CACHE:   24700147
L1D PQ	ACCESS:   19608561	FORWARD:          0	MERGED:   16293538	TO_CACHE:    3313885

L1D UNIQUE REGIONS ACCESSED: 0
L1D REGIONS CONFLICTS: 0
L1D Cross Page Prefetch Requests: 6622332
L1D Same Page Prefetch Requests: 22587344
L1D ROI Sum of L1D PQ occupancy: 110989842
L1D PREFETCHES PUSHED FROM L2C: 0
L1I TOTAL     ACCESS:   38700865  HIT:   26119611  MISS:   12581254  HIT %:     67.491  MISS %:     32.509   MPKI: 62.9063
L1I LOAD      ACCESS:   38700865  HIT:   26119611  MISS:   12581254  HIT %:     67.491  MISS %:     32.509   MPKI: 62.9063
L1I PREFETCH  REQUESTED:          0  ISSUED:          0  USEFUL:          0  USELESS:          0
L1I USEFUL LOAD PREFETCHES:          0 PREFETCH ISSUED TO LOWER LEVEL:          0  ACCURACY: -nan
L1I TIMELY PREFETCHES:          0 LATE PREFETCHES: 0 DROPPED PREFETCHES: 0
L1I PREFETCHES SAME FILL-ORIGIN LEVEL: 0 DIFFERENT FILL-ORIGIN LEVEL: 0
L1I AVERAGE MISS LATENCY: 14.5246 cycles
L1I RQ	ACCESS:   61067305	FORWARD:          0	MERGED:   19761548	TO_CACHE:   41305757

BTB TOTAL     ACCESS:   31223673  HIT:   22864778  MISS:    8358895  HIT %:     73.229  MISS %:     26.771   MPKI: 41.7945
BTB BRANCH_DIRECT_JUMP	ACCESS:    2956567  HIT:    2328967  MISS:     627600
BTB BRANCH_INDIRECT	ACCESS:   13061005  HIT:    9489306  MISS:    3571699
BTB BRANCH_CONDITIONAL	ACCESS:    5589874  HIT:    4924920  MISS:     664954
BTB BRANCH_DIRECT_CALL	ACCESS:    4001540  HIT:    3045075  MISS:     956465
BTB BRANCH_INDIRECT_CALL	ACCESS:     806569  HIT:     470352  MISS:     336217
BTB BRANCH_RETURN	ACCESS:    4808118  HIT:    2606158  MISS:    2201960
BTB BRANCH_OTHER ACCESS:          0  HIT:          0  MISS:          0

L2C TOTAL     ACCESS:   17332753  HIT:   16441195  MISS:     891558  HIT %:    94.8562  MISS %:    5.14378   MPKI: 4.45779
L2C LOAD      ACCESS:   14806591  HIT:   14072017  MISS:     734574  HIT %:    95.0389  MISS %:    4.96113   MPKI: 3.67287
L2C DATA LOAD MPKI: 2.77677
L2C INSTRUCTION LOAD MPKI: 0.896105
L2C RFO       ACCESS:     417301  HIT:     326633  MISS:      90668  HIT %:    78.2728  MISS %:    21.7272   MPKI: 0.45334
L2C PREFETCH  ACCESS:     259626  HIT:     226326  MISS:      33300  HIT %:    87.1739  MISS %:    12.8261   MPKI: 0.1665
AGUS PREFETCH L1 MISS: 0
L2C DATA PREFETCH MPKI: 0.1665
L2C INSTRUCTION PREFETCH MPKI: 0
L2C WRITEBACK ACCESS:    1008056  HIT:     989031  MISS:      19025  HIT %:    98.1127  MISS %:     1.8873   MPKI: 0.095125
L2C LOAD TRANSLATION ACCESS:      18701  HIT:       9573  MISS:       9128  HIT %:    51.1898  MISS %:    48.8102   MPKI: 0.04564
L2C TRANSLATION FROM L1D PREFETCHER ACCESS:     822478  HIT:     817615  MISS:       4863  HIT %:    99.4087  MISS %:   0.591262   MPKI: 0.024315
L2C PREFETCH  REQUESTED:          0  ISSUED:          0  USEFUL:       5908  USELESS:      32449
L2C USEFUL LOAD PREFETCHES:       5908 PREFETCH ISSUED TO LOWER LEVEL:      33300  ACCURACY: 17.7417
L2C TIMELY PREFETCHES:       5908 LATE PREFETCHES: 0 DROPPED PREFETCHES: 0
L2C PREFETCHES SAME FILL-ORIGIN LEVEL: 0 DIFFERENT FILL-ORIGIN LEVEL: 0
L2C AVERAGE MISS LATENCY: 42.7462 cycles
L2C RQ	ACCESS:   16065083	FORWARD:          0	MERGED:          0	TO_CACHE:   16065071
L2C WQ	ACCESS:    1008056	FORWARD:         12	MERGED:          0	TO_CACHE:    1008056
L2C PQ	ACCESS:     259626	FORWARD:          0	MERGED:          0	TO_CACHE:     259626

L2C Instructions Evicting Data 57812
L2C Translations Evicting Data 12588
L2C Data Evicting Data 614375
L2C Instructions Evicting Instructions 120261
L2C Translations Evicting Instructions 1148
L2C Data Evicting Instructions 52519
L2C Instructions Evicting Translations 1148
L2C Translations Evicting Translations 255
L2C Data Evicting Translations 12427
L2C Dense regions hint from L2: 0
PSCL5 TOTAL     ACCESS:     572993  HIT:     572993  MISS:          0  HIT %:        100  MISS %:          0   MPKI: 0
PSCL5 LOAD TRANSLATION ACCESS:      16753  HIT:      16753  MISS:          0  HIT %:        100  MISS %:          0   MPKI: 0
PSCL5 TRANSLATION FROM L1D PREFETCHER ACCESS:     556240  HIT:     556240  MISS:          0  HIT %:        100  MISS %:          0   MPKI: 0
PSCL5 PREFETCH  REQUESTED:          0  ISSUED:          0  USEFUL:          0  USELESS:          0
PSCL5 USEFUL LOAD PREFETCHES:          0 PREFETCH ISSUED TO LOWER LEVEL:          0  ACCURACY: -nan
PSCL5 TIMELY PREFETCHES:          0 LATE PREFETCHES: 0 DROPPED PREFETCHES: 0
PSCL5 PREFETCHES SAME FILL-ORIGIN LEVEL: 0 DIFFERENT FILL-ORIGIN LEVEL: 0

PSCL4 TOTAL     ACCESS:     483512  HIT:     483482  MISS:         30  HIT %:    99.9938  MISS %:  0.0062046   MPKI: 0.00015
PSCL4 LOAD TRANSLATION ACCESS:      16532  HIT:      16502  MISS:         30  HIT %:    99.8185  MISS %:   0.181466   MPKI: 0.00015
PSCL4 TRANSLATION FROM L1D PREFETCHER ACCESS:     466980  HIT:     466980  MISS:          0  HIT %:        100  MISS %:          0   MPKI: 0
PSCL4 PREFETCH  REQUESTED:          0  ISSUED:          0  USEFUL:          0  USELESS:          0
PSCL4 USEFUL LOAD PREFETCHES:          0 PREFETCH ISSUED TO LOWER LEVEL:          0  ACCURACY: -nan
PSCL4 TIMELY PREFETCHES:          0 LATE PREFETCHES: 0 DROPPED PREFETCHES: 0
PSCL4 PREFETCHES SAME FILL-ORIGIN LEVEL: 0 DIFFERENT FILL-ORIGIN LEVEL: 0

PSCL3 TOTAL     ACCESS:     415760  HIT:     415730  MISS:         30  HIT %:    99.9928  MISS %:  0.0072157   MPKI: 0.00015
PSCL3 LOAD TRANSLATION ACCESS:      16671  HIT:      16641  MISS:         30  HIT %:      99.82  MISS %:   0.179953   MPKI: 0.00015
PSCL3 TRANSLATION FROM L1D PREFETCHER ACCESS:     399089  HIT:     399089  MISS:          0  HIT %:        100  MISS %:          0   MPKI: 0
PSCL3 PREFETCH  REQUESTED:          0  ISSUED:          0  USEFUL:          0  USELESS:          0
PSCL3 USEFUL LOAD PREFETCHES:          0 PREFETCH ISSUED TO LOWER LEVEL:          0  ACCURACY: -nan
PSCL3 TIMELY PREFETCHES:          0 LATE PREFETCHES: 0 DROPPED PREFETCHES: 0
PSCL3 PREFETCHES SAME FILL-ORIGIN LEVEL: 0 DIFFERENT FILL-ORIGIN LEVEL: 0

PSCL2 TOTAL     ACCESS:     194376  HIT:     192462  MISS:       1914  HIT %:    99.0153  MISS %:   0.984689   MPKI: 0.00957
PSCL2 LOAD TRANSLATION ACCESS:      16779  HIT:      14865  MISS:       1914  HIT %:    88.5929  MISS %:    11.4071   MPKI: 0.00957
PSCL2 TRANSLATION FROM L1D PREFETCHER ACCESS:     177597  HIT:     177597  MISS:          0  HIT %:        100  MISS %:          0   MPKI: 0
PSCL2 PREFETCH  REQUESTED:          0  ISSUED:          0  USEFUL:          0  USELESS:          0
PSCL2 USEFUL LOAD PREFETCHES:          0 PREFETCH ISSUED TO LOWER LEVEL:          0  ACCURACY: -nan
PSCL2 TIMELY PREFETCHES:          0 LATE PREFETCHES: 0 DROPPED PREFETCHES: 0
PSCL2 PREFETCHES SAME FILL-ORIGIN LEVEL: 0 DIFFERENT FILL-ORIGIN LEVEL: 0

LLC TOTAL     ACCESS:    1223066  HIT:    1148623  MISS:      74443  HIT %:    93.9134  MISS %:    6.08659   MPKI: 0.372215
LLC LOAD      ACCESS:     734574  HIT:     682117  MISS:      52457  HIT %:    92.8589  MISS %:    7.14115   MPKI: 0.262285
LLC RFO       ACCESS:      90668  HIT:      72001  MISS:      18667  HIT %:    79.4117  MISS %:    20.5883   MPKI: 0.093335
LLC PREFETCH  ACCESS:      33300  HIT:      31626  MISS:       1674  HIT %:     94.973  MISS %:    5.02703   MPKI: 0.00837
AGUS PREFETCH L1 MISS: 0
LLC WRITEBACK ACCESS:     350533  HIT:     349586  MISS:        947  HIT %:    99.7298  MISS %:    0.27016   MPKI: 0.004735
LLC LOAD TRANSLATION ACCESS:       9128  HIT:       8733  MISS:        395  HIT %:    95.6727  MISS %:    4.32734   MPKI: 0.001975
LLC TRANSLATION FROM L1D PREFETCHER ACCESS:       4863  HIT:       4560  MISS:        303  HIT %:    93.7693  MISS %:    6.23072   MPKI: 0.001515
LLC PREFETCH  REQUESTED:          0  ISSUED:          0  USEFUL:        600  USELESS:       2252
LLC USEFUL LOAD PREFETCHES:        600 PREFETCH ISSUED TO LOWER LEVEL:       1674  ACCURACY: 35.8423
LLC TIMELY PREFETCHES:        600 LATE PREFETCHES: 0 DROPPED PREFETCHES: 0
LLC PREFETCHES SAME FILL-ORIGIN LEVEL: 0 DIFFERENT FILL-ORIGIN LEVEL: 0
LLC AVERAGE MISS LATENCY: 160.295 cycles
LLC RQ	ACCESS:     839233	FORWARD:          0	MERGED:          0	TO_CACHE:     839233
LLC WQ	ACCESS:     350533	FORWARD:          0	MERGED:          0	TO_CACHE:     350533
LLC PQ	ACCESS:      33300	FORWARD:          0	MERGED:          0	TO_CACHE:      33300

LLC Dense regions hint to LLC: 0

RAW hits: 2737828
Loads Generated: 46090938
Loads sent to L1D: 43353110
Stores Generated: 24964796
Stores sent to L1D: 24964815
Major fault: 0 Minor fault: 2572
Allocated PAGES: 2572

DRAM Statistics
 CHANNEL 0
 RQ ROW_BUFFER_HIT:       6447  ROW_BUFFER_MISS:      67047
 DBUS_CONGESTED:          3
 WQ ROW_BUFFER_HIT:       6214  ROW_BUFFER_MISS:      43929  FULL:          0

 AVG_CONGESTED_CYCLE: 7
 All warmup complete: 2
Channel 0 Bank busy for read cycles: 0
Channel 0 Bank busy for write cycles: 0
Channel 0
Rank 0
0banks busy for read cycles: 515791510
0banks busy for write cycles: 32981
1banks busy for read cycles: 7273976
1banks busy for write cycles: 4734463
2banks busy for read cycles: 1052670
2banks busy for write cycles: 1053477
3banks busy for read cycles: 272950
3banks busy for write cycles: 336232
4banks busy for read cycles: 19321
4banks busy for write cycles: 108077
5banks busy for read cycles: 8455
5banks busy for write cycles: 32220
6banks busy for read cycles: 5882
6banks busy for write cycles: 21351
7banks busy for read cycles: 3847
7banks busy for write cycles: 11590
8banks busy for read cycles: 0
8banks busy for write cycles: 8262

CPU 0 Branch Prediction Accuracy: 99.9377% MPKI: 0.11637 Average ROB Occupancy at Mispredict: 20.1862
Branch types
NOT_BRANCH: 162664071 81.332%
BRANCH_DIRECT_JUMP: 2956567 1.47828%
BRANCH_INDIRECT: 13061005 6.5305%
BRANCH_CONDITIONAL: 11702075 5.85104%
BRANCH_DIRECT_CALL: 4001540 2.00077%
BRANCH_INDIRECT_CALL: 806569 0.403284%
BRANCH_RETURN: 4808118 2.40406%
BRANCH_OTHER: 0 0%

DRAM PAGES: 1048576
Allocated PAGES: 2572
