
*** ChampSim Multicore Out-of-Order Simulator ***

Warmup Instructions: 50000000
Simulation Instructions: 200000000
Number of CPUs: 1
LLC sets: 2048
LLC ways: 16
Off-chip DRAM Size: 4096 MB Channels: 1 Width: 64-bit Data Rate: 6400 MT/s
CPU 0 runs traces/spec2k17/server_025.champsimtrace.xz
.xz
BTB has LRU replacement policy
ITLB has LRU replacement policy
DTLB has LRU replacement policy
STLB has LRU replacement policy
L1I has LRU replacement policy
L1D has LRU replacement policy
Initialize SRRIP state for L2C
Initialize DRRIP state for LLC
Heartbeat CPU 0 instructions: 10000003 cycles: 2835881 heartbeat IPC: 3.52624 cumulative IPC: 3.52624 (Simulation time: 0 hr 0 min 59 sec) 
Heartbeat CPU 0 instructions: 20000000 cycles: 5670009 heartbeat IPC: 3.52842 cumulative IPC: 3.52733 (Simulation time: 0 hr 2 min 3 sec) 
Heartbeat CPU 0 instructions: 30000002 cycles: 8502283 heartbeat IPC: 3.53073 cumulative IPC: 3.52846 (Simulation time: 0 hr 3 min 3 sec) 
Heartbeat CPU 0 instructions: 40000001 cycles: 11334319 heartbeat IPC: 3.53103 cumulative IPC: 3.5291 (Simulation time: 0 hr 4 min 7 sec) 
Heartbeat CPU 0 instructions: 50000001 cycles: 14169664 heartbeat IPC: 3.52691 cumulative IPC: 3.52867 (Simulation time: 0 hr 5 min 6 sec) 

Warmup complete CPU 0 instructions: 50000001 cycles: 14169664 (Simulation time: 0 hr 5 min 6 sec) 

Heartbeat CPU 0 instructions: 60000000 cycles: 46443217 heartbeat IPC: 0.309851 cumulative IPC: 0.309851 (Simulation time: 0 hr 6 min 34 sec) 
Heartbeat CPU 0 instructions: 70000003 cycles: 78848092 heartbeat IPC: 0.308596 cumulative IPC: 0.309222 (Simulation time: 0 hr 8 min 3 sec) 
Heartbeat CPU 0 instructions: 80000000 cycles: 111383502 heartbeat IPC: 0.307357 cumulative IPC: 0.308598 (Simulation time: 0 hr 9 min 34 sec) 
Heartbeat CPU 0 instructions: 90000000 cycles: 143853086 heartbeat IPC: 0.307981 cumulative IPC: 0.308443 (Simulation time: 0 hr 11 min 5 sec) 
Heartbeat CPU 0 instructions: 100000000 cycles: 163763803 heartbeat IPC: 0.502242 cumulative IPC: 0.334238 (Simulation time: 0 hr 12 min 23 sec) 
*** Reached end of trace for Core: 0 Repeating trace: traces/spec2k17/server_025.champsimtrace.xz
Heartbeat CPU 0 instructions: 110000000 cycles: 195998484 heartbeat IPC: 0.310225 cumulative IPC: 0.329981 (Simulation time: 0 hr 13 min 55 sec) 
Heartbeat CPU 0 instructions: 120000000 cycles: 228159551 heartbeat IPC: 0.310935 cumulative IPC: 0.327118 (Simulation time: 0 hr 15 min 19 sec) 
Heartbeat CPU 0 instructions: 130000001 cycles: 260576974 heartbeat IPC: 0.308476 cumulative IPC: 0.324666 (Simulation time: 0 hr 16 min 51 sec) 
Heartbeat CPU 0 instructions: 140000002 cycles: 292765187 heartbeat IPC: 0.310673 cumulative IPC: 0.323049 (Simulation time: 0 hr 18 min 18 sec) 
Heartbeat CPU 0 instructions: 150000000 cycles: 325046819 heartbeat IPC: 0.309774 cumulative IPC: 0.32167 (Simulation time: 0 hr 19 min 49 sec) 
Heartbeat CPU 0 instructions: 160000000 cycles: 357444669 heartbeat IPC: 0.308662 cumulative IPC: 0.320443 (Simulation time: 0 hr 21 min 24 sec) 
Heartbeat CPU 0 instructions: 170000000 cycles: 389566729 heartbeat IPC: 0.311313 cumulative IPC: 0.319662 (Simulation time: 0 hr 22 min 53 sec) 
Heartbeat CPU 0 instructions: 180000001 cycles: 422123258 heartbeat IPC: 0.307158 cumulative IPC: 0.318664 (Simulation time: 0 hr 24 min 19 sec) 
Heartbeat CPU 0 instructions: 190000001 cycles: 454546993 heartbeat IPC: 0.308416 cumulative IPC: 0.317909 (Simulation time: 0 hr 25 min 46 sec) 
Heartbeat CPU 0 instructions: 200000003 cycles: 478780601 heartbeat IPC: 0.41265 cumulative IPC: 0.322851 (Simulation time: 0 hr 27 min 12 sec) 
*** Reached end of trace for Core: 0 Repeating trace: traces/spec2k17/server_025.champsimtrace.xz
Heartbeat CPU 0 instructions: 210000000 cycles: 506751183 heartbeat IPC: 0.357518 cumulative IPC: 0.324819 (Simulation time: 0 hr 28 min 37 sec) 
Heartbeat CPU 0 instructions: 220000000 cycles: 538934646 heartbeat IPC: 0.310719 cumulative IPC: 0.323955 (Simulation time: 0 hr 30 min 9 sec) 
Heartbeat CPU 0 instructions: 230000000 cycles: 571295375 heartbeat IPC: 0.309017 cumulative IPC: 0.323087 (Simulation time: 0 hr 31 min 37 sec) 
Heartbeat CPU 0 instructions: 240000002 cycles: 603368378 heartbeat IPC: 0.311789 cumulative IPC: 0.322472 (Simulation time: 0 hr 33 min 6 sec) 
Heartbeat CPU 0 instructions: 250000003 cycles: 635725671 heartbeat IPC: 0.309049 cumulative IPC: 0.321773 (Simulation time: 0 hr 34 min 38 sec) 
Finished CPU 0 instructions: 200000002 cycles: 621556007 cumulative IPC: 0.321773 (Simulation time: 0 hr 34 min 38 sec) 

ChampSim completed all CPUs

Region of Interest Statistics

CPU 0 cumulative IPC: 0.321773 instructions: 200000002 cycles: 621556007
ITLB TOTAL     ACCESS:   34738233  HIT:   32827903  MISS:    1910330  HIT %:    94.5008  MISS %:    5.49921   MPKI: 9.55165
ITLB LOAD TRANSLATION ACCESS:   34738233  HIT:   32827903  MISS:    1910330  HIT %:    94.5008  MISS %:    5.49921   MPKI: 9.55165
ITLB PREFETCH  REQUESTED:          0  ISSUED:          0  USEFUL:          0  USELESS:          0
ITLB USEFUL LOAD PREFETCHES:          0 PREFETCH ISSUED TO LOWER LEVEL:          0  ACCURACY: -nan
ITLB TIMELY PREFETCHES:          0 LATE PREFETCHES: 0 DROPPED PREFETCHES: 0
ITLB PREFETCHES SAME FILL-ORIGIN LEVEL: 0 DIFFERENT FILL-ORIGIN LEVEL: 0
ITLB AVERAGE MISS LATENCY: 9.11337 cycles
ITLB RQ	ACCESS:   40855777	FORWARD:          0	MERGED:    5662001	TO_CACHE:   35193776

DTLB TOTAL     ACCESS:   46006671  HIT:   44238167  MISS:    1768504  HIT %:     96.156  MISS %:    3.84402   MPKI: 8.84252
DTLB LOAD TRANSLATION ACCESS:   46006671  HIT:   44238167  MISS:    1768504  HIT %:     96.156  MISS %:    3.84402   MPKI: 8.84252
DTLB PREFETCH  REQUESTED:          0  ISSUED:          0  USEFUL:          0  USELESS:          0
DTLB USEFUL LOAD PREFETCHES:          0 PREFETCH ISSUED TO LOWER LEVEL:          0  ACCURACY: -nan
DTLB TIMELY PREFETCHES:          0 LATE PREFETCHES: 0 DROPPED PREFETCHES: 0
DTLB PREFETCHES SAME FILL-ORIGIN LEVEL: 0 DIFFERENT FILL-ORIGIN LEVEL: 0
DTLB AVERAGE MISS LATENCY: 9.21987 cycles
DTLB RQ	ACCESS:   60858523	FORWARD:          0	MERGED:   14789542	TO_CACHE:   46068981

STLB TOTAL     ACCESS:    5184145  HIT:    5167789  MISS:      16356  HIT %:    99.6845  MISS %:     0.3155   MPKI: 0.08178
STLB LOAD TRANSLATION ACCESS:    3678834  HIT:    3664903  MISS:      13931  HIT %:    99.6213  MISS %:    0.37868   MPKI: 0.069655
STLB TRANSLATION FROM L1D PREFETCHER ACCESS:    1505311  HIT:    1502886  MISS:       2425  HIT %:    99.8389  MISS %:   0.161096   MPKI: 0.012125
STLB PREFETCH  REQUESTED:          0  ISSUED:          0  USEFUL:       2104  USELESS:        320
STLB USEFUL LOAD PREFETCHES:       2104 PREFETCH ISSUED TO LOWER LEVEL:          0  ACCURACY: inf
STLB TIMELY PREFETCHES:       2104 LATE PREFETCHES: 142 DROPPED PREFETCHES: 649715
STLB PREFETCHES SAME FILL-ORIGIN LEVEL: 0 DIFFERENT FILL-ORIGIN LEVEL: 0
STLB AVERAGE MISS LATENCY: 130924 cycles
STLB RQ	ACCESS:    7472264	FORWARD:          0	MERGED:    1483847	TO_CACHE:    5988417

STLB Hit, L1D data hit: 0
STLB Hit, L2C data hit: 0
STLB Hit, LLC data hit: 0
STLB Hit, LLC data miss: 0
STLB STLB hints to L2: 0
L1D TOTAL     ACCESS:   61752850  HIT:   57661576  MISS:    4091274  HIT %:    93.3748  MISS %:    6.62524   MPKI: 20.4564
L1D LOAD      ACCESS:   33964699  HIT:   31285910  MISS:    2678789  HIT %:     92.113  MISS %:    7.88698   MPKI: 13.3939
L1D RFO       ACCESS:   25144910  HIT:   24096083  MISS:    1048827  HIT %:    95.8289  MISS %:    4.17113   MPKI: 5.24413
L1D PREFETCH  ACCESS:    2643241  HIT:    2279583  MISS:     363658  HIT %:     86.242  MISS %:     13.758   MPKI: 1.81829
AGUS PREFETCH L1 MISS: 0
L1D PREFETCH  REQUESTED:   26273355  ISSUED:   23300045  USEFUL:      69295  USELESS:     294320
L1D USEFUL LOAD PREFETCHES:      69295 PREFETCH ISSUED TO LOWER LEVEL:     411061  ACCURACY: 16.8576
L1D TIMELY PREFETCHES:      69295 LATE PREFETCHES: 47335 DROPPED PREFETCHES: 993468
L1D PREFETCHES SAME FILL-ORIGIN LEVEL: 411061 DIFFERENT FILL-ORIGIN LEVEL: 0
L1D AVERAGE MISS LATENCY: 3.8244e+06 cycles
L1D RQ	ACCESS:   47226142	FORWARD:          0	MERGED:   12833902	TO_CACHE:   34078474
L1D WQ	ACCESS:   26938645	FORWARD:     318054	MERGED:     158596	TO_CACHE:   26780049
L1D PQ	ACCESS:   19506615	FORWARD:          0	MERGED:   15708897	TO_CACHE:    3793430

L1D UNIQUE REGIONS ACCESSED: 0
L1D REGIONS CONFLICTS: 0
L1D Cross Page Prefetch Requests: 5310000
L1D Same Page Prefetch Requests: 21595736
L1D ROI Sum of L1D PQ occupancy: 125776365
L1D PREFETCHES PUSHED FROM L2C: 0
L1I TOTAL     ACCESS:   39433155  HIT:   29480899  MISS:    9952256  HIT %:    74.7617  MISS %:    25.2383   MPKI: 49.7613
L1I LOAD      ACCESS:   39433155  HIT:   29480899  MISS:    9952256  HIT %:    74.7617  MISS %:    25.2383   MPKI: 49.7613
L1I PREFETCH  REQUESTED:          0  ISSUED:          0  USEFUL:          0  USELESS:          0
L1I USEFUL LOAD PREFETCHES:          0 PREFETCH ISSUED TO LOWER LEVEL:          0  ACCURACY: -nan
L1I TIMELY PREFETCHES:          0 LATE PREFETCHES: 0 DROPPED PREFETCHES: 0
L1I PREFETCHES SAME FILL-ORIGIN LEVEL: 0 DIFFERENT FILL-ORIGIN LEVEL: 0
L1I AVERAGE MISS LATENCY: 16.7002 cycles
L1I RQ	ACCESS:   58631440	FORWARD:          0	MERGED:   17775663	TO_CACHE:   40855777

BTB TOTAL     ACCESS:   30413089  HIT:   18271054  MISS:   12142035  HIT %:    60.0763  MISS %:    39.9237   MPKI: 60.7102
BTB BRANCH_DIRECT_JUMP	ACCESS:    2033451  HIT:    1204611  MISS:     828840
BTB BRANCH_INDIRECT	ACCESS:   12129859  HIT:    7449972  MISS:    4679887
BTB BRANCH_CONDITIONAL	ACCESS:    7365128  HIT:    6117133  MISS:    1247995
BTB BRANCH_DIRECT_CALL	ACCESS:    3753650  HIT:    1796881  MISS:    1956769
BTB BRANCH_INDIRECT_CALL	ACCESS:     688651  HIT:     311222  MISS:     377429
BTB BRANCH_RETURN	ACCESS:    4442350  HIT:    1391235  MISS:    3051115
BTB BRANCH_OTHER ACCESS:          0  HIT:          0  MISS:          0

L2C TOTAL     ACCESS:   16743527  HIT:   15160125  MISS:    1583402  HIT %:    90.5432  MISS %:     9.4568   MPKI: 7.91701
L2C LOAD      ACCESS:   12583709  HIT:   11449041  MISS:    1134668  HIT %:     90.983  MISS %:    9.01696   MPKI: 5.67334
L2C DATA LOAD MPKI: 1.45483
L2C INSTRUCTION LOAD MPKI: 4.2185
L2C RFO       ACCESS:    1048759  HIT:     853113  MISS:     195646  HIT %:     81.345  MISS %:     18.655   MPKI: 0.97823
L2C PREFETCH  ACCESS:     411061  HIT:     242830  MISS:     168231  HIT %:     59.074  MISS %:     40.926   MPKI: 0.841155
AGUS PREFETCH L1 MISS: 0
L2C DATA PREFETCH MPKI: 0.841155
L2C INSTRUCTION PREFETCH MPKI: 0
L2C WRITEBACK ACCESS:    1904976  HIT:    1845378  MISS:      59598  HIT %:    96.8715  MISS %:    3.12854   MPKI: 0.29799
L2C LOAD TRANSLATION ACCESS:      14514  HIT:       6940  MISS:       7574  HIT %:    47.8159  MISS %:    52.1841   MPKI: 0.03787
L2C TRANSLATION FROM L1D PREFETCHER ACCESS:     780508  HIT:     762823  MISS:      17685  HIT %:    97.7342  MISS %:    2.26583   MPKI: 0.088425
L2C PREFETCH  REQUESTED:          0  ISSUED:          0  USEFUL:      13308  USELESS:     172790
L2C USEFUL LOAD PREFETCHES:      13308 PREFETCH ISSUED TO LOWER LEVEL:     168231  ACCURACY: 7.91055
L2C TIMELY PREFETCHES:      13308 LATE PREFETCHES: 0 DROPPED PREFETCHES: 0
L2C PREFETCHES SAME FILL-ORIGIN LEVEL: 0 DIFFERENT FILL-ORIGIN LEVEL: 0
L2C AVERAGE MISS LATENCY: 43.6007 cycles
L2C RQ	ACCESS:   14427490	FORWARD:          0	MERGED:          0	TO_CACHE:   14427490
L2C WQ	ACCESS:    1904976	FORWARD:          0	MERGED:          0	TO_CACHE:    1904976
L2C PQ	ACCESS:     411061	FORWARD:          0	MERGED:          0	TO_CACHE:     411061

L2C Instructions Evicting Data 334411
L2C Translations Evicting Data 12075
L2C Data Evicting Data 342755
L2C Instructions Evicting Instructions 497376
L2C Translations Evicting Instructions 12682
L2C Data Evicting Instructions 299773
L2C Instructions Evicting Translations 11914
L2C Translations Evicting Translations 502
L2C Data Evicting Translations 12316
L2C Dense regions hint from L2: 0
PSCL5 TOTAL     ACCESS:     602656  HIT:     602656  MISS:          0  HIT %:        100  MISS %:          0   MPKI: 0
PSCL5 LOAD TRANSLATION ACCESS:      13804  HIT:      13804  MISS:          0  HIT %:        100  MISS %:          0   MPKI: 0
PSCL5 TRANSLATION FROM L1D PREFETCHER ACCESS:     588852  HIT:     588852  MISS:          0  HIT %:        100  MISS %:          0   MPKI: 0
PSCL5 PREFETCH  REQUESTED:          0  ISSUED:          0  USEFUL:          0  USELESS:          0
PSCL5 USEFUL LOAD PREFETCHES:          0 PREFETCH ISSUED TO LOWER LEVEL:          0  ACCURACY: -nan
PSCL5 TIMELY PREFETCHES:          0 LATE PREFETCHES: 0 DROPPED PREFETCHES: 0
PSCL5 PREFETCHES SAME FILL-ORIGIN LEVEL: 0 DIFFERENT FILL-ORIGIN LEVEL: 0

PSCL4 TOTAL     ACCESS:     298995  HIT:     298937  MISS:         58  HIT %:    99.9806  MISS %:  0.0193983   MPKI: 0.00029
PSCL4 LOAD TRANSLATION ACCESS:      11304  HIT:      11246  MISS:         58  HIT %:    99.4869  MISS %:   0.513093   MPKI: 0.00029
PSCL4 TRANSLATION FROM L1D PREFETCHER ACCESS:     287691  HIT:     287691  MISS:          0  HIT %:        100  MISS %:          0   MPKI: 0
PSCL4 PREFETCH  REQUESTED:          0  ISSUED:          0  USEFUL:          0  USELESS:          0
PSCL4 USEFUL LOAD PREFETCHES:          0 PREFETCH ISSUED TO LOWER LEVEL:          0  ACCURACY: -nan
PSCL4 TIMELY PREFETCHES:          0 LATE PREFETCHES: 0 DROPPED PREFETCHES: 0
PSCL4 PREFETCHES SAME FILL-ORIGIN LEVEL: 0 DIFFERENT FILL-ORIGIN LEVEL: 0

PSCL3 TOTAL     ACCESS:     344701  HIT:     344605  MISS:         96  HIT %:    99.9721  MISS %:  0.0278502   MPKI: 0.00048
PSCL3 LOAD TRANSLATION ACCESS:      12682  HIT:      12586  MISS:         96  HIT %:     99.243  MISS %:   0.756978   MPKI: 0.00048
PSCL3 TRANSLATION FROM L1D PREFETCHER ACCESS:     332019  HIT:     332019  MISS:          0  HIT %:        100  MISS %:          0   MPKI: 0
PSCL3 PREFETCH  REQUESTED:          0  ISSUED:          0  USEFUL:          0  USELESS:          0
PSCL3 USEFUL LOAD PREFETCHES:          0 PREFETCH ISSUED TO LOWER LEVEL:          0  ACCURACY: -nan
PSCL3 TIMELY PREFETCHES:          0 LATE PREFETCHES: 0 DROPPED PREFETCHES: 0
PSCL3 PREFETCHES SAME FILL-ORIGIN LEVEL: 0 DIFFERENT FILL-ORIGIN LEVEL: 0

PSCL2 TOTAL     ACCESS:     132990  HIT:     132408  MISS:        582  HIT %:    99.5624  MISS %:   0.437627   MPKI: 0.00291
PSCL2 LOAD TRANSLATION ACCESS:      13821  HIT:      13239  MISS:        582  HIT %:     95.789  MISS %:    4.21098   MPKI: 0.00291
PSCL2 TRANSLATION FROM L1D PREFETCHER ACCESS:     119169  HIT:     119169  MISS:          0  HIT %:        100  MISS %:          0   MPKI: 0
PSCL2 PREFETCH  REQUESTED:          0  ISSUED:          0  USEFUL:          0  USELESS:          0
PSCL2 USEFUL LOAD PREFETCHES:          0 PREFETCH ISSUED TO LOWER LEVEL:          0  ACCURACY: -nan
PSCL2 TIMELY PREFETCHES:          0 LATE PREFETCHES: 0 DROPPED PREFETCHES: 0
PSCL2 PREFETCHES SAME FILL-ORIGIN LEVEL: 0 DIFFERENT FILL-ORIGIN LEVEL: 0

LLC TOTAL     ACCESS:    1793246  HIT:    1655311  MISS:     137935  HIT %:    92.3081  MISS %:    7.69192   MPKI: 0.689675
LLC LOAD      ACCESS:    1134668  HIT:    1100543  MISS:      34125  HIT %:    96.9925  MISS %:    3.00749   MPKI: 0.170625
LLC RFO       ACCESS:     195638  HIT:     150218  MISS:      45420  HIT %:    76.7837  MISS %:    23.2163   MPKI: 0.2271
LLC PREFETCH  ACCESS:     168231  HIT:     112035  MISS:      56196  HIT %:    66.5959  MISS %:    33.4041   MPKI: 0.28098
AGUS PREFETCH L1 MISS: 0
LLC WRITEBACK ACCESS:     269450  HIT:     268219  MISS:       1231  HIT %:    99.5431  MISS %:   0.456857   MPKI: 0.006155
LLC LOAD TRANSLATION ACCESS:       7574  HIT:       7101  MISS:        473  HIT %:     93.755  MISS %:    6.24505   MPKI: 0.002365
LLC TRANSLATION FROM L1D PREFETCHER ACCESS:      17685  HIT:      17195  MISS:        490  HIT %:    97.2293  MISS %:    2.77071   MPKI: 0.00245
LLC PREFETCH  REQUESTED:          0  ISSUED:          0  USEFUL:       4710  USELESS:      51186
LLC USEFUL LOAD PREFETCHES:       4710 PREFETCH ISSUED TO LOWER LEVEL:      56196  ACCURACY: 8.38138
LLC TIMELY PREFETCHES:       4710 LATE PREFETCHES: 0 DROPPED PREFETCHES: 0
LLC PREFETCHES SAME FILL-ORIGIN LEVEL: 0 DIFFERENT FILL-ORIGIN LEVEL: 0
LLC AVERAGE MISS LATENCY: 168.85 cycles
LLC RQ	ACCESS:    1355573	FORWARD:          0	MERGED:          0	TO_CACHE:    1355565
LLC WQ	ACCESS:     269450	FORWARD:          8	MERGED:          0	TO_CACHE:     269450
LLC PQ	ACCESS:     168231	FORWARD:          0	MERGED:          0	TO_CACHE:     168231

LLC Dense regions hint to LLC: 0

RAW hits: 1816844
Loads Generated: 49042988
Loads sent to L1D: 47226142
Stores Generated: 26938645
Stores sent to L1D: 26938645
Major fault: 0 Minor fault: 2563
Allocated PAGES: 2563

DRAM Statistics
 CHANNEL 0
 RQ ROW_BUFFER_HIT:      47711  ROW_BUFFER_MISS:      88944
 DBUS_CONGESTED:        109
 WQ ROW_BUFFER_HIT:       4101  ROW_BUFFER_MISS:      47878  FULL:          0

 AVG_CONGESTED_CYCLE: 4
 All warmup complete: 2
Channel 0 Bank busy for read cycles: 0
Channel 0 Bank busy for write cycles: 0
Channel 0
Rank 0
0banks busy for read cycles: 612516461
0banks busy for write cycles: 12657
1banks busy for read cycles: 3080173
1banks busy for write cycles: 1512510
2banks busy for read cycles: 787940
2banks busy for write cycles: 409251
3banks busy for read cycles: 501560
3banks busy for write cycles: 236747
4banks busy for read cycles: 389939
4banks busy for write cycles: 182888
5banks busy for read cycles: 321943
5banks busy for write cycles: 155632
6banks busy for read cycles: 297836
6banks busy for write cycles: 154364
7banks busy for read cycles: 278513
7banks busy for write cycles: 136692
8banks busy for read cycles: 339024
8banks busy for write cycles: 241878

CPU 0 Branch Prediction Accuracy: 99.8625% MPKI: 0.24407 Average ROB Occupancy at Mispredict: 30.0735
Branch types
NOT_BRANCH: 164508663 82.2543%
BRANCH_DIRECT_JUMP: 2033451 1.01673%
BRANCH_INDIRECT: 12129859 6.06493%
BRANCH_CONDITIONAL: 12443472 6.22174%
BRANCH_DIRECT_CALL: 3753650 1.87682%
BRANCH_INDIRECT_CALL: 688651 0.344325%
BRANCH_RETURN: 4442350 2.22117%
BRANCH_OTHER: 0 0%

DRAM PAGES: 1048576
Allocated PAGES: 2563
