
*** ChampSim Multicore Out-of-Order Simulator ***

Warmup Instructions: 50000000
Simulation Instructions: 200000000
Number of CPUs: 1
LLC sets: 2048
LLC ways: 16
Off-chip DRAM Size: 4096 MB Channels: 1 Width: 64-bit Data Rate: 6400 MT/s
CPU 0 runs traces/spec2k17/server_024.champsimtrace.xz
.xz
BTB has LRU replacement policy
ITLB has LRU replacement policy
DTLB has LRU replacement policy
STLB has LRU replacement policy
L1I has LRU replacement policy
L1D has LRU replacement policy
Initialize SRRIP state for L2C
Initialize DRRIP state for LLC
Heartbeat CPU 0 instructions: 10000001 cycles: 2822978 heartbeat IPC: 3.54236 cumulative IPC: 3.54236 (Simulation time: 0 hr 1 min 1 sec) 
Heartbeat CPU 0 instructions: 20000002 cycles: 5639577 heartbeat IPC: 3.55038 cumulative IPC: 3.54637 (Simulation time: 0 hr 2 min 4 sec) 
Heartbeat CPU 0 instructions: 30000002 cycles: 8466257 heartbeat IPC: 3.53772 cumulative IPC: 3.54348 (Simulation time: 0 hr 3 min 8 sec) 
Heartbeat CPU 0 instructions: 40000001 cycles: 11286118 heartbeat IPC: 3.54627 cumulative IPC: 3.54418 (Simulation time: 0 hr 4 min 8 sec) 
Heartbeat CPU 0 instructions: 50000003 cycles: 14099890 heartbeat IPC: 3.55395 cumulative IPC: 3.54613 (Simulation time: 0 hr 5 min 8 sec) 

Warmup complete CPU 0 instructions: 50000003 cycles: 14099890 (Simulation time: 0 hr 5 min 8 sec) 

Heartbeat CPU 0 instructions: 60000000 cycles: 43729626 heartbeat IPC: 0.337499 cumulative IPC: 0.337499 (Simulation time: 0 hr 6 min 32 sec) 
Heartbeat CPU 0 instructions: 70000000 cycles: 73996405 heartbeat IPC: 0.330395 cumulative IPC: 0.333909 (Simulation time: 0 hr 7 min 49 sec) 
*** Reached end of trace for Core: 0 Repeating trace: traces/spec2k17/server_024.champsimtrace.xz
Heartbeat CPU 0 instructions: 80000001 cycles: 103943720 heartbeat IPC: 0.33392 cumulative IPC: 0.333913 (Simulation time: 0 hr 9 min 16 sec) 
Heartbeat CPU 0 instructions: 90000003 cycles: 133952568 heartbeat IPC: 0.333235 cumulative IPC: 0.333743 (Simulation time: 0 hr 10 min 38 sec) 
Heartbeat CPU 0 instructions: 100000000 cycles: 163793076 heartbeat IPC: 0.335115 cumulative IPC: 0.334017 (Simulation time: 0 hr 12 min 2 sec) 
Heartbeat CPU 0 instructions: 110000000 cycles: 194483514 heartbeat IPC: 0.325834 cumulative IPC: 0.332624 (Simulation time: 0 hr 13 min 29 sec) 
Heartbeat CPU 0 instructions: 120000000 cycles: 224739770 heartbeat IPC: 0.33051 cumulative IPC: 0.332321 (Simulation time: 0 hr 14 min 54 sec) 
Heartbeat CPU 0 instructions: 130000000 cycles: 254045111 heartbeat IPC: 0.341235 cumulative IPC: 0.333409 (Simulation time: 0 hr 16 min 21 sec) 
Heartbeat CPU 0 instructions: 140000002 cycles: 283903425 heartbeat IPC: 0.334915 cumulative IPC: 0.333576 (Simulation time: 0 hr 17 min 55 sec) 
Heartbeat CPU 0 instructions: 150000001 cycles: 313895945 heartbeat IPC: 0.333416 cumulative IPC: 0.33356 (Simulation time: 0 hr 19 min 23 sec) 
*** Reached end of trace for Core: 0 Repeating trace: traces/spec2k17/server_024.champsimtrace.xz
Heartbeat CPU 0 instructions: 160000000 cycles: 343670030 heartbeat IPC: 0.335863 cumulative IPC: 0.333768 (Simulation time: 0 hr 20 min 53 sec) 
Heartbeat CPU 0 instructions: 170000000 cycles: 373666178 heartbeat IPC: 0.333376 cumulative IPC: 0.333735 (Simulation time: 0 hr 22 min 22 sec) 
Heartbeat CPU 0 instructions: 180000000 cycles: 403835017 heartbeat IPC: 0.331468 cumulative IPC: 0.33356 (Simulation time: 0 hr 23 min 50 sec) 
Heartbeat CPU 0 instructions: 190000001 cycles: 434382047 heartbeat IPC: 0.327364 cumulative IPC: 0.33311 (Simulation time: 0 hr 25 min 16 sec) 
Heartbeat CPU 0 instructions: 200000000 cycles: 464348626 heartbeat IPC: 0.333705 cumulative IPC: 0.333149 (Simulation time: 0 hr 26 min 45 sec) 
Heartbeat CPU 0 instructions: 210000000 cycles: 493664755 heartbeat IPC: 0.341109 cumulative IPC: 0.333636 (Simulation time: 0 hr 28 min 19 sec) 
Heartbeat CPU 0 instructions: 220000000 cycles: 523781962 heartbeat IPC: 0.332036 cumulative IPC: 0.333541 (Simulation time: 0 hr 29 min 42 sec) 
Heartbeat CPU 0 instructions: 230000000 cycles: 553434870 heartbeat IPC: 0.337235 cumulative IPC: 0.333744 (Simulation time: 0 hr 31 min 9 sec) 
*** Reached end of trace for Core: 0 Repeating trace: traces/spec2k17/server_024.champsimtrace.xz
Heartbeat CPU 0 instructions: 240000002 cycles: 583257741 heartbeat IPC: 0.335313 cumulative IPC: 0.333827 (Simulation time: 0 hr 32 min 37 sec) 
Heartbeat CPU 0 instructions: 250000003 cycles: 613432927 heartbeat IPC: 0.331398 cumulative IPC: 0.333704 (Simulation time: 0 hr 34 min 8 sec) 
Finished CPU 0 instructions: 200000000 cycles: 599333037 cumulative IPC: 0.333704 (Simulation time: 0 hr 34 min 8 sec) 

ChampSim completed all CPUs

Region of Interest Statistics

CPU 0 cumulative IPC: 0.333704 instructions: 200000000 cycles: 599333037
ITLB TOTAL     ACCESS:   34433711  HIT:   32605759  MISS:    1827952  HIT %:    94.6914  MISS %:    5.30861   MPKI: 9.13976
ITLB LOAD TRANSLATION ACCESS:   34433711  HIT:   32605759  MISS:    1827952  HIT %:    94.6914  MISS %:    5.30861   MPKI: 9.13976
ITLB PREFETCH  REQUESTED:          0  ISSUED:          0  USEFUL:          0  USELESS:          0
ITLB USEFUL LOAD PREFETCHES:          0 PREFETCH ISSUED TO LOWER LEVEL:          0  ACCURACY: -nan
ITLB TIMELY PREFETCHES:          0 LATE PREFETCHES: 0 DROPPED PREFETCHES: 0
ITLB PREFETCHES SAME FILL-ORIGIN LEVEL: 0 DIFFERENT FILL-ORIGIN LEVEL: 0
ITLB AVERAGE MISS LATENCY: 9.07863 cycles
ITLB RQ	ACCESS:   40223308	FORWARD:          0	MERGED:    5351273	TO_CACHE:   34872035

DTLB TOTAL     ACCESS:   45281110  HIT:   43491328  MISS:    1789782  HIT %:    96.0474  MISS %:     3.9526   MPKI: 8.94891
DTLB LOAD TRANSLATION ACCESS:   45281110  HIT:   43491328  MISS:    1789782  HIT %:    96.0474  MISS %:     3.9526   MPKI: 8.94891
DTLB PREFETCH  REQUESTED:          0  ISSUED:          0  USEFUL:          0  USELESS:          0
DTLB USEFUL LOAD PREFETCHES:          0 PREFETCH ISSUED TO LOWER LEVEL:          0  ACCURACY: -nan
DTLB TIMELY PREFETCHES:          0 LATE PREFETCHES: 0 DROPPED PREFETCHES: 0
DTLB PREFETCHES SAME FILL-ORIGIN LEVEL: 0 DIFFERENT FILL-ORIGIN LEVEL: 0
DTLB AVERAGE MISS LATENCY: 9.25721 cycles
DTLB RQ	ACCESS:   59803250	FORWARD:          0	MERGED:   14452254	TO_CACHE:   45350996

STLB TOTAL     ACCESS:    5058400  HIT:    5044614  MISS:      13786  HIT %:    99.7275  MISS %:   0.272537   MPKI: 0.06893
STLB LOAD TRANSLATION ACCESS:    3617733  HIT:    3605768  MISS:      11965  HIT %:    99.6693  MISS %:   0.330732   MPKI: 0.059825
STLB TRANSLATION FROM L1D PREFETCHER ACCESS:    1440667  HIT:    1438846  MISS:       1821  HIT %:    99.8736  MISS %:     0.1264   MPKI: 0.009105
STLB PREFETCH  REQUESTED:          0  ISSUED:          0  USEFUL:        962  USELESS:        829
STLB USEFUL LOAD PREFETCHES:        962 PREFETCH ISSUED TO LOWER LEVEL:          0  ACCURACY: inf
STLB TIMELY PREFETCHES:        962 LATE PREFETCHES: 44 DROPPED PREFETCHES: 714309
STLB PREFETCHES SAME FILL-ORIGIN LEVEL: 0 DIFFERENT FILL-ORIGIN LEVEL: 0
STLB AVERAGE MISS LATENCY: 239089 cycles
STLB RQ	ACCESS:    7152611	FORWARD:          0	MERGED:    1226122	TO_CACHE:    5926489

STLB Hit, L1D data hit: 0
STLB Hit, L2C data hit: 0
STLB Hit, LLC data hit: 0
STLB Hit, LLC data miss: 0
STLB STLB hints to L2: 0
L1D TOTAL     ACCESS:   60326246  HIT:   56266198  MISS:    4060048  HIT %:    93.2698  MISS %:    6.73015   MPKI: 20.3002
L1D LOAD      ACCESS:   33545653  HIT:   30822857  MISS:    2722796  HIT %:    91.8833  MISS %:    8.11669   MPKI: 13.614
L1D RFO       ACCESS:   24436269  HIT:   23353107  MISS:    1083162  HIT %:    95.5674  MISS %:     4.4326   MPKI: 5.41581
L1D PREFETCH  ACCESS:    2344324  HIT:    2090234  MISS:     254090  HIT %:    89.1615  MISS %:    10.8385   MPKI: 1.27045
AGUS PREFETCH L1 MISS: 0
L1D PREFETCH  REQUESTED:   28565431  ISSUED:   26146614  USEFUL:      66535  USELESS:     187589
L1D USEFUL LOAD PREFETCHES:      66535 PREFETCH ISSUED TO LOWER LEVEL:     313355  ACCURACY: 21.2331
L1D TIMELY PREFETCHES:      66535 LATE PREFETCHES: 59237 DROPPED PREFETCHES: 1034984
L1D PREFETCHES SAME FILL-ORIGIN LEVEL: 313355 DIFFERENT FILL-ORIGIN LEVEL: 0
L1D AVERAGE MISS LATENCY: 4.53595e+06 cycles
L1D RQ	ACCESS:   46967178	FORWARD:          0	MERGED:   13016384	TO_CACHE:   33658421
L1D WQ	ACCESS:   26317198	FORWARD:     292705	MERGED:     172369	TO_CACHE:   26144829
L1D PQ	ACCESS:   22611736	FORWARD:          0	MERGED:   19076526	TO_CACHE:    3534878

L1D UNIQUE REGIONS ACCESSED: 0
L1D REGIONS CONFLICTS: 0
L1D Cross Page Prefetch Requests: 7237290
L1D Same Page Prefetch Requests: 22687918
L1D ROI Sum of L1D PQ occupancy: 111603400
L1D PREFETCHES PUSHED FROM L2C: 0
L1I TOTAL     ACCESS:   38815878  HIT:   29200210  MISS:    9615668  HIT %:    75.2275  MISS %:    24.7725   MPKI: 48.0783
L1I LOAD      ACCESS:   38815878  HIT:   29200210  MISS:    9615668  HIT %:    75.2275  MISS %:    24.7725   MPKI: 48.0783
L1I PREFETCH  REQUESTED:          0  ISSUED:          0  USEFUL:          0  USELESS:          0
L1I USEFUL LOAD PREFETCHES:          0 PREFETCH ISSUED TO LOWER LEVEL:          0  ACCURACY: -nan
L1I TIMELY PREFETCHES:          0 LATE PREFETCHES: 0 DROPPED PREFETCHES: 0
L1I PREFETCHES SAME FILL-ORIGIN LEVEL: 0 DIFFERENT FILL-ORIGIN LEVEL: 0
L1I AVERAGE MISS LATENCY: 16.8825 cycles
L1I RQ	ACCESS:   57797601	FORWARD:          0	MERGED:   17574293	TO_CACHE:   40223308

BTB TOTAL     ACCESS:   30276049  HIT:   18932725  MISS:   11343324  HIT %:    62.5337  MISS %:    37.4663   MPKI: 56.7166
BTB BRANCH_DIRECT_JUMP	ACCESS:    2183763  HIT:    1387870  MISS:     795893
BTB BRANCH_INDIRECT	ACCESS:   11358219  HIT:    7100300  MISS:    4257919
BTB BRANCH_CONDITIONAL	ACCESS:    8733205  HIT:    7588000  MISS:    1145205
BTB BRANCH_DIRECT_CALL	ACCESS:    3381427  HIT:    1525545  MISS:    1855882
BTB BRANCH_INDIRECT_CALL	ACCESS:     619012  HIT:     244340  MISS:     374672
BTB BRANCH_RETURN	ACCESS:    4000423  HIT:    1086670  MISS:    2913753
BTB BRANCH_OTHER ACCESS:          0  HIT:          0  MISS:          0

L2C TOTAL     ACCESS:   16339995  HIT:   14588783  MISS:    1751212  HIT %:    89.2827  MISS %:    10.7173   MPKI: 8.75606
L2C LOAD      ACCESS:   12279220  HIT:   10992528  MISS:    1286692  HIT %:    89.5214  MISS %:    10.4786   MPKI: 6.43346
L2C DATA LOAD MPKI: 2.06603
L2C INSTRUCTION LOAD MPKI: 4.36743
L2C RFO       ACCESS:    1083129  HIT:     824985  MISS:     258144  HIT %:    76.1668  MISS %:    23.8332   MPKI: 1.29072
L2C PREFETCH  ACCESS:     313345  HIT:     205310  MISS:     108035  HIT %:     65.522  MISS %:     34.478   MPKI: 0.540175
AGUS PREFETCH L1 MISS: 0
L2C DATA PREFETCH MPKI: 0.540175
L2C INSTRUCTION PREFETCH MPKI: 0
L2C WRITEBACK ACCESS:    1833809  HIT:    1763521  MISS:      70288  HIT %:    96.1671  MISS %:     3.8329   MPKI: 0.35144
L2C LOAD TRANSLATION ACCESS:      13239  HIT:       5603  MISS:       7636  HIT %:    42.3219  MISS %:    57.6781   MPKI: 0.03818
L2C TRANSLATION FROM L1D PREFETCHER ACCESS:     817253  HIT:     796836  MISS:      20417  HIT %:    97.5018  MISS %:    2.49825   MPKI: 0.102085
L2C PREFETCH  REQUESTED:          0  ISSUED:          0  USEFUL:      14539  USELESS:     114176
L2C USEFUL LOAD PREFETCHES:      14539 PREFETCH ISSUED TO LOWER LEVEL:     108035  ACCURACY: 13.4577
L2C TIMELY PREFETCHES:      14539 LATE PREFETCHES: 0 DROPPED PREFETCHES: 0
L2C PREFETCHES SAME FILL-ORIGIN LEVEL: 0 DIFFERENT FILL-ORIGIN LEVEL: 0
L2C AVERAGE MISS LATENCY: 43.878 cycles
L2C RQ	ACCESS:   14192853	FORWARD:          0	MERGED:          0	TO_CACHE:   14192841
L2C WQ	ACCESS:    1833809	FORWARD:         22	MERGED:          0	TO_CACHE:    1833809
L2C PQ	ACCESS:     313355	FORWARD:          0	MERGED:          0	TO_CACHE:     313345

L2C Instructions Evicting Data 384994
L2C Translations Evicting Data 16645
L2C Data Evicting Data 417825
L2C Instructions Evicting Instructions 478297
L2C Translations Evicting Instructions 10742
L2C Data Evicting Instructions 345000
L2C Instructions Evicting Translations 10195
L2C Translations Evicting Translations 666
L2C Data Evicting Translations 16560
L2C Dense regions hint from L2: 0
PSCL5 TOTAL     ACCESS:     658871  HIT:     658871  MISS:          0  HIT %:        100  MISS %:          0   MPKI: 0
PSCL5 LOAD TRANSLATION ACCESS:      11921  HIT:      11921  MISS:          0  HIT %:        100  MISS %:          0   MPKI: 0
PSCL5 TRANSLATION FROM L1D PREFETCHER ACCESS:     646950  HIT:     646950  MISS:          0  HIT %:        100  MISS %:          0   MPKI: 0
PSCL5 PREFETCH  REQUESTED:          0  ISSUED:          0  USEFUL:          0  USELESS:          0
PSCL5 USEFUL LOAD PREFETCHES:          0 PREFETCH ISSUED TO LOWER LEVEL:          0  ACCURACY: -nan
PSCL5 TIMELY PREFETCHES:          0 LATE PREFETCHES: 0 DROPPED PREFETCHES: 0
PSCL5 PREFETCHES SAME FILL-ORIGIN LEVEL: 0 DIFFERENT FILL-ORIGIN LEVEL: 0

PSCL4 TOTAL     ACCESS:     386521  HIT:     386456  MISS:         65  HIT %:    99.9832  MISS %:  0.0168167   MPKI: 0.000325
PSCL4 LOAD TRANSLATION ACCESS:      11161  HIT:      11096  MISS:         65  HIT %:    99.4176  MISS %:   0.582385   MPKI: 0.000325
PSCL4 TRANSLATION FROM L1D PREFETCHER ACCESS:     375360  HIT:     375360  MISS:          0  HIT %:        100  MISS %:          0   MPKI: 0
PSCL4 PREFETCH  REQUESTED:          0  ISSUED:          0  USEFUL:          0  USELESS:          0
PSCL4 USEFUL LOAD PREFETCHES:          0 PREFETCH ISSUED TO LOWER LEVEL:          0  ACCURACY: -nan
PSCL4 TIMELY PREFETCHES:          0 LATE PREFETCHES: 0 DROPPED PREFETCHES: 0
PSCL4 PREFETCHES SAME FILL-ORIGIN LEVEL: 0 DIFFERENT FILL-ORIGIN LEVEL: 0

PSCL3 TOTAL     ACCESS:     398615  HIT:     398550  MISS:         65  HIT %:    99.9837  MISS %:  0.0163065   MPKI: 0.000325
PSCL3 LOAD TRANSLATION ACCESS:      11800  HIT:      11735  MISS:         65  HIT %:    99.4492  MISS %:   0.550847   MPKI: 0.000325
PSCL3 TRANSLATION FROM L1D PREFETCHER ACCESS:     386815  HIT:     386815  MISS:          0  HIT %:        100  MISS %:          0   MPKI: 0
PSCL3 PREFETCH  REQUESTED:          0  ISSUED:          0  USEFUL:          0  USELESS:          0
PSCL3 USEFUL LOAD PREFETCHES:          0 PREFETCH ISSUED TO LOWER LEVEL:          0  ACCURACY: -nan
PSCL3 TIMELY PREFETCHES:          0 LATE PREFETCHES: 0 DROPPED PREFETCHES: 0
PSCL3 PREFETCHES SAME FILL-ORIGIN LEVEL: 0 DIFFERENT FILL-ORIGIN LEVEL: 0

PSCL2 TOTAL     ACCESS:     179500  HIT:     178280  MISS:       1220  HIT %:    99.3203  MISS %:   0.679666   MPKI: 0.0061
PSCL2 LOAD TRANSLATION ACCESS:      11952  HIT:      10732  MISS:       1220  HIT %:    89.7925  MISS %:    10.2075   MPKI: 0.0061
PSCL2 TRANSLATION FROM L1D PREFETCHER ACCESS:     167548  HIT:     167548  MISS:          0  HIT %:        100  MISS %:          0   MPKI: 0
PSCL2 PREFETCH  REQUESTED:          0  ISSUED:          0  USEFUL:          0  USELESS:          0
PSCL2 USEFUL LOAD PREFETCHES:          0 PREFETCH ISSUED TO LOWER LEVEL:          0  ACCURACY: -nan
PSCL2 TIMELY PREFETCHES:          0 LATE PREFETCHES: 0 DROPPED PREFETCHES: 0
PSCL2 PREFETCHES SAME FILL-ORIGIN LEVEL: 0 DIFFERENT FILL-ORIGIN LEVEL: 0

LLC TOTAL     ACCESS:    2031052  HIT:    1880289  MISS:     150763  HIT %:    92.5771  MISS %:     7.4229   MPKI: 0.753815
LLC LOAD      ACCESS:    1286691  HIT:    1242209  MISS:      44482  HIT %:    96.5429  MISS %:    3.45708   MPKI: 0.22241
LLC RFO       ACCESS:     258144  HIT:     181438  MISS:      76706  HIT %:    70.2856  MISS %:    29.7144   MPKI: 0.38353
LLC PREFETCH  ACCESS:     108035  HIT:      80804  MISS:      27231  HIT %:    74.7943  MISS %:    25.2057   MPKI: 0.136155
AGUS PREFETCH L1 MISS: 0
LLC WRITEBACK ACCESS:     350129  HIT:     348990  MISS:       1139  HIT %:    99.6747  MISS %:   0.325309   MPKI: 0.005695
LLC LOAD TRANSLATION ACCESS:       7636  HIT:       7033  MISS:        603  HIT %:    92.1032  MISS %:     7.8968   MPKI: 0.003015
LLC TRANSLATION FROM L1D PREFETCHER ACCESS:      20417  HIT:      19815  MISS:        602  HIT %:    97.0515  MISS %:    2.94852   MPKI: 0.00301
LLC PREFETCH  REQUESTED:          0  ISSUED:          0  USEFUL:       2427  USELESS:      27081
LLC USEFUL LOAD PREFETCHES:       2427 PREFETCH ISSUED TO LOWER LEVEL:      27231  ACCURACY: 8.91264
LLC TIMELY PREFETCHES:       2427 LATE PREFETCHES: 0 DROPPED PREFETCHES: 0
LLC PREFETCHES SAME FILL-ORIGIN LEVEL: 0 DIFFERENT FILL-ORIGIN LEVEL: 0
LLC AVERAGE MISS LATENCY: 174.949 cycles
LLC RQ	ACCESS:    1572889	FORWARD:          0	MERGED:          0	TO_CACHE:    1572888
LLC WQ	ACCESS:     350129	FORWARD:          1	MERGED:          0	TO_CACHE:     350129
LLC PQ	ACCESS:     108035	FORWARD:          0	MERGED:          0	TO_CACHE:     108035

LLC Dense regions hint to LLC: 0

RAW hits: 1396794
Loads Generated: 48363973
Loads sent to L1D: 46967178
Stores Generated: 26317189
Stores sent to L1D: 26317198
Major fault: 0 Minor fault: 2466
Allocated PAGES: 2466

DRAM Statistics
 CHANNEL 0
 RQ ROW_BUFFER_HIT:      58566  ROW_BUFFER_MISS:      91022
 DBUS_CONGESTED:        106
 WQ ROW_BUFFER_HIT:       7320  ROW_BUFFER_MISS:      76107  FULL:          0

 AVG_CONGESTED_CYCLE: 4
 All warmup complete: 2
Channel 0 Bank busy for read cycles: 0
Channel 0 Bank busy for write cycles: 0
Channel 0
Rank 0
0banks busy for read cycles: 588329187
0banks busy for write cycles: 17342
1banks busy for read cycles: 3893373
1banks busy for write cycles: 2209953
2banks busy for read cycles: 568336
2banks busy for write cycles: 509521
3banks busy for read cycles: 406829
3banks busy for write cycles: 271485
4banks busy for read cycles: 318464
4banks busy for write cycles: 212322
5banks busy for read cycles: 274101
5banks busy for write cycles: 197037
6banks busy for read cycles: 259908
6banks busy for write cycles: 208442
7banks busy for read cycles: 265370
7banks busy for write cycles: 256101
8banks busy for read cycles: 542469
8banks busy for write cycles: 592798

CPU 0 Branch Prediction Accuracy: 99.8129% MPKI: 0.329815 Average ROB Occupancy at Mispredict: 48.9336
Branch types
NOT_BRANCH: 164744967 82.3725%
BRANCH_DIRECT_JUMP: 2183763 1.09188%
BRANCH_INDIRECT: 11358219 5.67911%
BRANCH_CONDITIONAL: 13711964 6.85598%
BRANCH_DIRECT_CALL: 3381427 1.69071%
BRANCH_INDIRECT_CALL: 619012 0.309506%
BRANCH_RETURN: 4000423 2.00021%
BRANCH_OTHER: 0 0%

DRAM PAGES: 1048576
Allocated PAGES: 2466
