
*** ChampSim Multicore Out-of-Order Simulator ***

Warmup Instructions: 50000000
Simulation Instructions: 200000000
Number of CPUs: 1
LLC sets: 2048
LLC ways: 16
Off-chip DRAM Size: 4096 MB Channels: 1 Width: 64-bit Data Rate: 6400 MT/s
CPU 0 runs traces/spec2k17/server_019.champsimtrace.xz
.xz
BTB has LRU replacement policy
ITLB has LRU replacement policy
DTLB has LRU replacement policy
STLB has LRU replacement policy
L1I has LRU replacement policy
L1D has LRU replacement policy
Initialize SRRIP state for L2C
Initialize DRRIP state for LLC
Heartbeat CPU 0 instructions: 10000001 cycles: 2957404 heartbeat IPC: 3.38134 cumulative IPC: 3.38134 (Simulation time: 0 hr 1 min 5 sec) 
Heartbeat CPU 0 instructions: 20000002 cycles: 5912613 heartbeat IPC: 3.38386 cumulative IPC: 3.3826 (Simulation time: 0 hr 2 min 11 sec) 
Heartbeat CPU 0 instructions: 30000000 cycles: 8864798 heartbeat IPC: 3.38732 cumulative IPC: 3.38417 (Simulation time: 0 hr 3 min 19 sec) 
Heartbeat CPU 0 instructions: 40000003 cycles: 11822792 heartbeat IPC: 3.38067 cumulative IPC: 3.3833 (Simulation time: 0 hr 4 min 30 sec) 
Heartbeat CPU 0 instructions: 50000000 cycles: 14772150 heartbeat IPC: 3.39057 cumulative IPC: 3.38475 (Simulation time: 0 hr 5 min 37 sec) 

Warmup complete CPU 0 instructions: 50000004 cycles: 14772151 (Simulation time: 0 hr 5 min 37 sec) 

Heartbeat CPU 0 instructions: 60000000 cycles: 39197435 heartbeat IPC: 0.409412 cumulative IPC: 0.409412 (Simulation time: 0 hr 7 min 24 sec) 
Heartbeat CPU 0 instructions: 70000000 cycles: 61323619 heartbeat IPC: 0.451953 cumulative IPC: 0.429632 (Simulation time: 0 hr 9 min 2 sec) 
Heartbeat CPU 0 instructions: 80000000 cycles: 95280463 heartbeat IPC: 0.294491 cumulative IPC: 0.372632 (Simulation time: 0 hr 10 min 36 sec) 
Heartbeat CPU 0 instructions: 90000000 cycles: 118727556 heartbeat IPC: 0.426492 cumulative IPC: 0.38478 (Simulation time: 0 hr 12 min 13 sec) 
Heartbeat CPU 0 instructions: 100000000 cycles: 141504899 heartbeat IPC: 0.439033 cumulative IPC: 0.394531 (Simulation time: 0 hr 13 min 48 sec) 
*** Reached end of trace for Core: 0 Repeating trace: traces/spec2k17/server_019.champsimtrace.xz
Heartbeat CPU 0 instructions: 110000000 cycles: 163639202 heartbeat IPC: 0.451787 cumulative IPC: 0.403044 (Simulation time: 0 hr 15 min 20 sec) 
Heartbeat CPU 0 instructions: 120000003 cycles: 185351600 heartbeat IPC: 0.460566 cumulative IPC: 0.410366 (Simulation time: 0 hr 16 min 44 sec) 
Heartbeat CPU 0 instructions: 130000000 cycles: 206725763 heartbeat IPC: 0.467854 cumulative IPC: 0.416767 (Simulation time: 0 hr 18 min 13 sec) 
Heartbeat CPU 0 instructions: 140000000 cycles: 227960868 heartbeat IPC: 0.470918 cumulative IPC: 0.422161 (Simulation time: 0 hr 19 min 46 sec) 
Heartbeat CPU 0 instructions: 150000003 cycles: 249280812 heartbeat IPC: 0.469045 cumulative IPC: 0.426423 (Simulation time: 0 hr 21 min 22 sec) 
Heartbeat CPU 0 instructions: 160000000 cycles: 269591897 heartbeat IPC: 0.492342 cumulative IPC: 0.431678 (Simulation time: 0 hr 22 min 56 sec) 
Heartbeat CPU 0 instructions: 170000000 cycles: 293462617 heartbeat IPC: 0.418923 cumulative IPC: 0.430585 (Simulation time: 0 hr 24 min 40 sec) 
Heartbeat CPU 0 instructions: 180000000 cycles: 318162563 heartbeat IPC: 0.404859 cumulative IPC: 0.428491 (Simulation time: 0 hr 26 min 16 sec) 
Heartbeat CPU 0 instructions: 190000001 cycles: 350116339 heartbeat IPC: 0.312952 cumulative IPC: 0.417482 (Simulation time: 0 hr 27 min 55 sec) 
Heartbeat CPU 0 instructions: 200000002 cycles: 373605736 heartbeat IPC: 0.425724 cumulative IPC: 0.418021 (Simulation time: 0 hr 29 min 31 sec) 
Heartbeat CPU 0 instructions: 210000000 cycles: 396221183 heartbeat IPC: 0.442176 cumulative IPC: 0.419453 (Simulation time: 0 hr 31 min 2 sec) 
*** Reached end of trace for Core: 0 Repeating trace: traces/spec2k17/server_019.champsimtrace.xz
Heartbeat CPU 0 instructions: 220000000 cycles: 417680219 heartbeat IPC: 0.466004 cumulative IPC: 0.421932 (Simulation time: 0 hr 32 min 38 sec) 
Heartbeat CPU 0 instructions: 230000000 cycles: 438655710 heartbeat IPC: 0.476747 cumulative IPC: 0.424645 (Simulation time: 0 hr 34 min 9 sec) 
Heartbeat CPU 0 instructions: 240000003 cycles: 459134857 heartbeat IPC: 0.488302 cumulative IPC: 0.427579 (Simulation time: 0 hr 35 min 13 sec) 
Heartbeat CPU 0 instructions: 250000000 cycles: 479527584 heartbeat IPC: 0.490371 cumulative IPC: 0.430334 (Simulation time: 0 hr 36 min 16 sec) 
Finished CPU 0 instructions: 200000000 cycles: 464755435 cumulative IPC: 0.430334 (Simulation time: 0 hr 36 min 16 sec) 

ChampSim completed all CPUs

Region of Interest Statistics

CPU 0 cumulative IPC: 0.430334 instructions: 200000000 cycles: 464755435
ITLB TOTAL     ACCESS:   33620721  HIT:   32191157  MISS:    1429564  HIT %:     95.748  MISS %:    4.25203   MPKI: 7.14782
ITLB LOAD TRANSLATION ACCESS:   33620721  HIT:   32191157  MISS:    1429564  HIT %:     95.748  MISS %:    4.25203   MPKI: 7.14782
ITLB PREFETCH  REQUESTED:          0  ISSUED:          0  USEFUL:          0  USELESS:          0
ITLB USEFUL LOAD PREFETCHES:          0 PREFETCH ISSUED TO LOWER LEVEL:          0  ACCURACY: -nan
ITLB TIMELY PREFETCHES:          0 LATE PREFETCHES: 0 DROPPED PREFETCHES: 0
ITLB PREFETCHES SAME FILL-ORIGIN LEVEL: 0 DIFFERENT FILL-ORIGIN LEVEL: 0
ITLB AVERAGE MISS LATENCY: 9.48515 cycles
ITLB RQ	ACCESS:   40250724	FORWARD:          0	MERGED:    6169619	TO_CACHE:   34081105

DTLB TOTAL     ACCESS:   38590199  HIT:   36992786  MISS:    1597413  HIT %:    95.8606  MISS %:    4.13943   MPKI: 7.98707
DTLB LOAD TRANSLATION ACCESS:   38590199  HIT:   36992786  MISS:    1597413  HIT %:    95.8606  MISS %:    4.13943   MPKI: 7.98707
DTLB PREFETCH  REQUESTED:          0  ISSUED:          0  USEFUL:          0  USELESS:          0
DTLB USEFUL LOAD PREFETCHES:          0 PREFETCH ISSUED TO LOWER LEVEL:          0  ACCURACY: -nan
DTLB TIMELY PREFETCHES:          0 LATE PREFETCHES: 0 DROPPED PREFETCHES: 0
DTLB PREFETCHES SAME FILL-ORIGIN LEVEL: 0 DIFFERENT FILL-ORIGIN LEVEL: 0
DTLB AVERAGE MISS LATENCY: 20.1036 cycles
DTLB RQ	ACCESS:   58676125	FORWARD:          0	MERGED:   19632287	TO_CACHE:   39043838

STLB TOTAL     ACCESS:    5056007  HIT:    4870001  MISS:     186006  HIT %:    96.3211  MISS %:    3.67891   MPKI: 0.93003
STLB LOAD TRANSLATION ACCESS:    3026977  HIT:    2857506  MISS:     169471  HIT %:    94.4013  MISS %:    5.59869   MPKI: 0.847355
STLB TRANSLATION FROM L1D PREFETCHER ACCESS:    2029030  HIT:    2012495  MISS:      16535  HIT %:    99.1851  MISS %:   0.814921   MPKI: 0.082675
STLB PREFETCH  REQUESTED:          0  ISSUED:          0  USEFUL:      14317  USELESS:       2200
STLB USEFUL LOAD PREFETCHES:      14317 PREFETCH ISSUED TO LOWER LEVEL:          0  ACCURACY: inf
STLB TIMELY PREFETCHES:      14317 LATE PREFETCHES: 1178 DROPPED PREFETCHES: 1622290
STLB PREFETCHES SAME FILL-ORIGIN LEVEL: 0 DIFFERENT FILL-ORIGIN LEVEL: 0
STLB AVERAGE MISS LATENCY: 522160 cycles
STLB RQ	ACCESS:   11616329	FORWARD:          0	MERGED:    4114323	TO_CACHE:    7502006

STLB Hit, L1D data hit: 0
STLB Hit, L2C data hit: 0
STLB Hit, LLC data hit: 0
STLB Hit, LLC data miss: 0
STLB STLB hints to L2: 0
L1D TOTAL     ACCESS:   50937323  HIT:   43452534  MISS:    7484789  HIT %:    85.3059  MISS %:    14.6941   MPKI: 37.4239
L1D LOAD      ACCESS:   25840129  HIT:   22682166  MISS:    3157963  HIT %:    87.7788  MISS %:    12.2212   MPKI: 15.7898
L1D RFO       ACCESS:   21654805  HIT:   18095958  MISS:    3558847  HIT %:    83.5656  MISS %:    16.4344   MPKI: 17.7942
L1D PREFETCH  ACCESS:    3442389  HIT:    2674410  MISS:     767979  HIT %:    77.6905  MISS %:    22.3095   MPKI: 3.83989
AGUS PREFETCH L1 MISS: 0
L1D PREFETCH  REQUESTED:  245395079  ISSUED:   97043000  USEFUL:     132747  USELESS:     635371
L1D USEFUL LOAD PREFETCHES:     132747 PREFETCH ISSUED TO LOWER LEVEL:    1035111  ACCURACY: 12.8244
L1D TIMELY PREFETCHES:     132747 LATE PREFETCHES: 267130 DROPPED PREFETCHES: 3808600
L1D PREFETCHES SAME FILL-ORIGIN LEVEL: 1035111 DIFFERENT FILL-ORIGIN LEVEL: 0
L1D AVERAGE MISS LATENCY: 9.23088e+06 cycles
L1D RQ	ACCESS:   44095571	FORWARD:          0	MERGED:   17576058	TO_CACHE:   26263624
L1D WQ	ACCESS:   32636784	FORWARD:     256002	MERGED:     224283	TO_CACHE:   32412501
L1D PQ	ACCESS:   88453649	FORWARD:          0	MERGED:   79864185	TO_CACHE:    8589351

L1D UNIQUE REGIONS ACCESSED: 0
L1D REGIONS CONFLICTS: 0
L1D Cross Page Prefetch Requests: 11688276
L1D Same Page Prefetch Requests: 142271974
L1D ROI Sum of L1D PQ occupancy: 556022833
L1D PREFETCHES PUSHED FROM L2C: 0
L1I TOTAL     ACCESS:   37763077  HIT:   29261650  MISS:    8501427  HIT %:    77.4875  MISS %:    22.5125   MPKI: 42.5071
L1I LOAD      ACCESS:   37763077  HIT:   29261650  MISS:    8501427  HIT %:    77.4875  MISS %:    22.5125   MPKI: 42.5071
L1I PREFETCH  REQUESTED:          0  ISSUED:          0  USEFUL:          0  USELESS:          0
L1I USEFUL LOAD PREFETCHES:          0 PREFETCH ISSUED TO LOWER LEVEL:          0  ACCURACY: -nan
L1I TIMELY PREFETCHES:          0 LATE PREFETCHES: 0 DROPPED PREFETCHES: 0
L1I PREFETCHES SAME FILL-ORIGIN LEVEL: 0 DIFFERENT FILL-ORIGIN LEVEL: 0
L1I AVERAGE MISS LATENCY: 17.4351 cycles
L1I RQ	ACCESS:   58600474	FORWARD:          0	MERGED:   18349750	TO_CACHE:   40250724

BTB TOTAL     ACCESS:   25868833  HIT:   24240387  MISS:    1628446  HIT %:     93.705  MISS %:    6.29501   MPKI: 8.14223
BTB BRANCH_DIRECT_JUMP	ACCESS:    1694760  HIT:    1684405  MISS:      10355
BTB BRANCH_INDIRECT	ACCESS:    9830410  HIT:    9194063  MISS:     636347
BTB BRANCH_CONDITIONAL	ACCESS:    7683208  HIT:    7668728  MISS:      14480
BTB BRANCH_DIRECT_CALL	ACCESS:    2643025  HIT:    2609037  MISS:      33988
BTB BRANCH_INDIRECT_CALL	ACCESS:     687193  HIT:     583910  MISS:     103283
BTB BRANCH_RETURN	ACCESS:    3330237  HIT:    2500244  MISS:     829993
BTB BRANCH_OTHER ACCESS:          0  HIT:          0  MISS:          0

L2C TOTAL     ACCESS:   22688946  HIT:   15398160  MISS:    7290786  HIT %:    67.8664  MISS %:    32.1336   MPKI: 36.4539
L2C LOAD      ACCESS:   11392028  HIT:    8786251  MISS:    2605777  HIT %:    77.1263  MISS %:    22.8737   MPKI: 13.0289
L2C DATA LOAD MPKI: 10.2335
L2C INSTRUCTION LOAD MPKI: 2.79542
L2C RFO       ACCESS:    3558830  HIT:     146177  MISS:    3412653  HIT %:    4.10745  MISS %:    95.8926   MPKI: 17.0633
L2C PREFETCH  ACCESS:    1035111  HIT:      66427  MISS:     968684  HIT %:    6.41738  MISS %:    93.5826   MPKI: 4.84342
AGUS PREFETCH L1 MISS: 0
L2C DATA PREFETCH MPKI: 4.84342
L2C INSTRUCTION PREFETCH MPKI: 0
L2C WRITEBACK ACCESS:    4368373  HIT:    4230382  MISS:     137991  HIT %:    96.8411  MISS %:    3.15886   MPKI: 0.689955
L2C LOAD TRANSLATION ACCESS:     228961  HIT:     146541  MISS:      82420  HIT %:    64.0026  MISS %:    35.9974   MPKI: 0.4121
L2C TRANSLATION FROM L1D PREFETCHER ACCESS:    2105643  HIT:    2022382  MISS:      83261  HIT %:    96.0458  MISS %:    3.95418   MPKI: 0.416305
L2C PREFETCH  REQUESTED:          0  ISSUED:          0  USEFUL:      68545  USELESS:     983762
L2C USEFUL LOAD PREFETCHES:      68545 PREFETCH ISSUED TO LOWER LEVEL:     968684  ACCURACY: 7.07609
L2C TIMELY PREFETCHES:      68545 LATE PREFETCHES: 0 DROPPED PREFETCHES: 0
L2C PREFETCHES SAME FILL-ORIGIN LEVEL: 0 DIFFERENT FILL-ORIGIN LEVEL: 0
L2C AVERAGE MISS LATENCY: 203.675 cycles
L2C RQ	ACCESS:   17285709	FORWARD:          0	MERGED:          0	TO_CACHE:   17285462
L2C WQ	ACCESS:    4368373	FORWARD:        247	MERGED:          0	TO_CACHE:    4368373
L2C PQ	ACCESS:    1035111	FORWARD:          0	MERGED:          0	TO_CACHE:    1035111

L2C Instructions Evicting Data 507414
L2C Translations Evicting Data 150458
L2C Data Evicting Data 5782838
L2C Instructions Evicting Instructions 40378
L2C Translations Evicting Instructions 11629
L2C Data Evicting Instructions 497239
L2C Instructions Evicting Translations 11293
L2C Translations Evicting Translations 3594
L2C Data Evicting Translations 147952
L2C Dense regions hint from L2: 0
PSCL5 TOTAL     ACCESS:    1502918  HIT:    1502918  MISS:          0  HIT %:        100  MISS %:          0   MPKI: 0
PSCL5 LOAD TRANSLATION ACCESS:     168293  HIT:     168293  MISS:          0  HIT %:        100  MISS %:          0   MPKI: 0
PSCL5 TRANSLATION FROM L1D PREFETCHER ACCESS:    1334625  HIT:    1334625  MISS:          0  HIT %:        100  MISS %:          0   MPKI: 0
PSCL5 PREFETCH  REQUESTED:          0  ISSUED:          0  USEFUL:          0  USELESS:          0
PSCL5 USEFUL LOAD PREFETCHES:          0 PREFETCH ISSUED TO LOWER LEVEL:          0  ACCURACY: -nan
PSCL5 TIMELY PREFETCHES:          0 LATE PREFETCHES: 0 DROPPED PREFETCHES: 0
PSCL5 PREFETCHES SAME FILL-ORIGIN LEVEL: 0 DIFFERENT FILL-ORIGIN LEVEL: 0

PSCL4 TOTAL     ACCESS:    1460464  HIT:    1460066  MISS:        398  HIT %:    99.9727  MISS %:  0.0272516   MPKI: 0.00199
PSCL4 LOAD TRANSLATION ACCESS:     165233  HIT:     164835  MISS:        398  HIT %:    99.7591  MISS %:   0.240872   MPKI: 0.00199
PSCL4 TRANSLATION FROM L1D PREFETCHER ACCESS:    1295231  HIT:    1295231  MISS:          0  HIT %:        100  MISS %:          0   MPKI: 0
PSCL4 PREFETCH  REQUESTED:          0  ISSUED:          0  USEFUL:          0  USELESS:          0
PSCL4 USEFUL LOAD PREFETCHES:          0 PREFETCH ISSUED TO LOWER LEVEL:          0  ACCURACY: -nan
PSCL4 TIMELY PREFETCHES:          0 LATE PREFETCHES: 0 DROPPED PREFETCHES: 0
PSCL4 PREFETCHES SAME FILL-ORIGIN LEVEL: 0 DIFFERENT FILL-ORIGIN LEVEL: 0

PSCL3 TOTAL     ACCESS:    1455394  HIT:    1453600  MISS:       1794  HIT %:    99.8767  MISS %:   0.123266   MPKI: 0.00897
PSCL3 LOAD TRANSLATION ACCESS:     165431  HIT:     163637  MISS:       1794  HIT %:    98.9156  MISS %:    1.08444   MPKI: 0.00897
PSCL3 TRANSLATION FROM L1D PREFETCHER ACCESS:    1289963  HIT:    1289963  MISS:          0  HIT %:        100  MISS %:          0   MPKI: 0
PSCL3 PREFETCH  REQUESTED:          0  ISSUED:          0  USEFUL:          0  USELESS:          0
PSCL3 USEFUL LOAD PREFETCHES:          0 PREFETCH ISSUED TO LOWER LEVEL:          0  ACCURACY: -nan
PSCL3 TIMELY PREFETCHES:          0 LATE PREFETCHES: 0 DROPPED PREFETCHES: 0
PSCL3 PREFETCHES SAME FILL-ORIGIN LEVEL: 0 DIFFERENT FILL-ORIGIN LEVEL: 0

PSCL2 TOTAL     ACCESS:     650794  HIT:     590775  MISS:      60019  HIT %:    90.7776  MISS %:    9.22243   MPKI: 0.300095
PSCL2 LOAD TRANSLATION ACCESS:     169735  HIT:     109716  MISS:      60019  HIT %:    64.6396  MISS %:    35.3604   MPKI: 0.300095
PSCL2 TRANSLATION FROM L1D PREFETCHER ACCESS:     481059  HIT:     481059  MISS:          0  HIT %:        100  MISS %:          0   MPKI: 0
PSCL2 PREFETCH  REQUESTED:          0  ISSUED:          0  USEFUL:          0  USELESS:          0
PSCL2 USEFUL LOAD PREFETCHES:          0 PREFETCH ISSUED TO LOWER LEVEL:          0  ACCURACY: -nan
PSCL2 TIMELY PREFETCHES:          0 LATE PREFETCHES: 0 DROPPED PREFETCHES: 0
PSCL2 PREFETCHES SAME FILL-ORIGIN LEVEL: 0 DIFFERENT FILL-ORIGIN LEVEL: 0

LLC TOTAL     ACCESS:   11206875  HIT:    4854967  MISS:    6351908  HIT %:    43.3213  MISS %:    56.6787   MPKI: 31.7595
LLC LOAD      ACCESS:    2605774  HIT:    1404971  MISS:    1200803  HIT %:    53.9176  MISS %:    46.0824   MPKI: 6.00401
LLC RFO       ACCESS:    3412637  HIT:     705494  MISS:    2707143  HIT %:     20.673  MISS %:     79.327   MPKI: 13.5357
LLC PREFETCH  ACCESS:     968684  HIT:     161483  MISS:     807201  HIT %:    16.6703  MISS %:    83.3297   MPKI: 4.03601
AGUS PREFETCH L1 MISS: 0
LLC WRITEBACK ACCESS:    4054099  HIT:    2494467  MISS:    1559632  HIT %:    61.5295  MISS %:    38.4705   MPKI: 7.79816
LLC LOAD TRANSLATION ACCESS:      82420  HIT:      34286  MISS:      48134  HIT %:    41.5991  MISS %:    58.4009   MPKI: 0.24067
LLC TRANSLATION FROM L1D PREFETCHER ACCESS:      83261  HIT:      54266  MISS:      28995  HIT %:    65.1758  MISS %:    34.8242   MPKI: 0.144975
LLC PREFETCH  REQUESTED:          0  ISSUED:          0  USEFUL:      28124  USELESS:     813071
LLC USEFUL LOAD PREFETCHES:      28124 PREFETCH ISSUED TO LOWER LEVEL:     807201  ACCURACY: 3.48414
LLC TIMELY PREFETCHES:      28124 LATE PREFETCHES: 0 DROPPED PREFETCHES: 0
LLC PREFETCHES SAME FILL-ORIGIN LEVEL: 0 DIFFERENT FILL-ORIGIN LEVEL: 0
LLC AVERAGE MISS LATENCY: 199.617 cycles
LLC RQ	ACCESS:    6184111	FORWARD:          0	MERGED:          0	TO_CACHE:    6184092
LLC WQ	ACCESS:    4054099	FORWARD:         19	MERGED:          0	TO_CACHE:    4054099
LLC PQ	ACCESS:     968684	FORWARD:          0	MERGED:          0	TO_CACHE:     968684

LLC Dense regions hint to LLC: 0

RAW hits: 2702860
Loads Generated: 46798431
Loads sent to L1D: 44095571
Stores Generated: 32636771
Stores sent to L1D: 32636784
Major fault: 0 Minor fault: 25901
Allocated PAGES: 25901

DRAM Statistics
 CHANNEL 0
 RQ ROW_BUFFER_HIT:    1704439  ROW_BUFFER_MISS:    3087305
 DBUS_CONGESTED:       1728
 WQ ROW_BUFFER_HIT:     646358  ROW_BUFFER_MISS:    2357589  FULL:      16769

 AVG_CONGESTED_CYCLE: 3
 All warmup complete: 2
Channel 0 Bank busy for read cycles: 0
Channel 0 Bank busy for write cycles: 0
Channel 0
Rank 0
0banks busy for read cycles: 169498034
0banks busy for write cycles: 233070
1banks busy for read cycles: 73521647
1banks busy for write cycles: 36054010
2banks busy for read cycles: 22848157
2banks busy for write cycles: 17493912
3banks busy for read cycles: 14661632
3banks busy for write cycles: 9302595
4banks busy for read cycles: 7852521
4banks busy for write cycles: 5441413
5banks busy for read cycles: 7139848
5banks busy for write cycles: 3724240
6banks busy for read cycles: 9454584
6banks busy for write cycles: 3172355
7banks busy for read cycles: 11530965
7banks busy for write cycles: 5914819
8banks busy for read cycles: 24832364
8banks busy for write cycles: 42079270

CPU 0 Branch Prediction Accuracy: 99.9365% MPKI: 0.098915 Average ROB Occupancy at Mispredict: 109.69
Branch types
NOT_BRANCH: 168850935 84.4255%
BRANCH_DIRECT_JUMP: 1694760 0.84738%
BRANCH_INDIRECT: 9830410 4.91521%
BRANCH_CONDITIONAL: 12963086 6.48154%
BRANCH_DIRECT_CALL: 2643025 1.32151%
BRANCH_INDIRECT_CALL: 687193 0.343597%
BRANCH_RETURN: 3330237 1.66512%
BRANCH_OTHER: 0 0%

DRAM PAGES: 1048576
Allocated PAGES: 25901
