
*** ChampSim Multicore Out-of-Order Simulator ***

Warmup Instructions: 50000000
Simulation Instructions: 200000000
Number of CPUs: 1
LLC sets: 2048
LLC ways: 16
Off-chip DRAM Size: 4096 MB Channels: 1 Width: 64-bit Data Rate: 6400 MT/s
CPU 0 runs traces/spec2k17/srv_11.champsimtrace.xz
.xz
BTB has LRU replacement policy
ITLB has LRU replacement policy
DTLB has LRU replacement policy
STLB has LRU replacement policy
L1I has LRU replacement policy
L1D has LRU replacement policy
Initialize SRRIP state for L2C
Initialize DRRIP state for LLC
Heartbeat CPU 0 instructions: 10000000 cycles: 3256227 heartbeat IPC: 3.07104 cumulative IPC: 3.07104 (Simulation time: 0 hr 1 min 17 sec) 
Heartbeat CPU 0 instructions: 20000002 cycles: 7518101 heartbeat IPC: 2.34639 cumulative IPC: 2.66025 (Simulation time: 0 hr 3 min 1 sec) 
Heartbeat CPU 0 instructions: 30000001 cycles: 10312042 heartbeat IPC: 3.57917 cumulative IPC: 2.90922 (Simulation time: 0 hr 4 min 8 sec) 
*** Reached end of trace for Core: 0 Repeating trace: traces/spec2k17/srv_11.champsimtrace.xz
Heartbeat CPU 0 instructions: 40000001 cycles: 13419573 heartbeat IPC: 3.21799 cumulative IPC: 2.98072 (Simulation time: 0 hr 5 min 19 sec) 
Heartbeat CPU 0 instructions: 50000000 cycles: 17821507 heartbeat IPC: 2.27173 cumulative IPC: 2.8056 (Simulation time: 0 hr 7 min 10 sec) 

Warmup complete CPU 0 instructions: 50000004 cycles: 17821508 (Simulation time: 0 hr 7 min 10 sec) 

Heartbeat CPU 0 instructions: 60000003 cycles: 41600339 heartbeat IPC: 0.420542 cumulative IPC: 0.420542 (Simulation time: 0 hr 8 min 28 sec) 
*** Reached end of trace for Core: 0 Repeating trace: traces/spec2k17/srv_11.champsimtrace.xz
Heartbeat CPU 0 instructions: 70000000 cycles: 65593654 heartbeat IPC: 0.416783 cumulative IPC: 0.418654 (Simulation time: 0 hr 9 min 46 sec) 
Heartbeat CPU 0 instructions: 80000001 cycles: 106391237 heartbeat IPC: 0.245113 cumulative IPC: 0.338716 (Simulation time: 0 hr 12 min 7 sec) 
Heartbeat CPU 0 instructions: 90000003 cycles: 131216352 heartbeat IPC: 0.402818 cumulative IPC: 0.35275 (Simulation time: 0 hr 13 min 37 sec) 
*** Reached end of trace for Core: 0 Repeating trace: traces/spec2k17/srv_11.champsimtrace.xz
Heartbeat CPU 0 instructions: 100000003 cycles: 154794076 heartbeat IPC: 0.424129 cumulative IPC: 0.365037 (Simulation time: 0 hr 14 min 56 sec) 
Heartbeat CPU 0 instructions: 110000000 cycles: 194568894 heartbeat IPC: 0.251415 cumulative IPC: 0.339468 (Simulation time: 0 hr 17 min 10 sec) 
Heartbeat CPU 0 instructions: 120000000 cycles: 220587306 heartbeat IPC: 0.384343 cumulative IPC: 0.345226 (Simulation time: 0 hr 18 min 35 sec) 
*** Reached end of trace for Core: 0 Repeating trace: traces/spec2k17/srv_11.champsimtrace.xz
Heartbeat CPU 0 instructions: 130000002 cycles: 244125423 heartbeat IPC: 0.424843 cumulative IPC: 0.353507 (Simulation time: 0 hr 19 min 52 sec) 
Heartbeat CPU 0 instructions: 140000002 cycles: 282641731 heartbeat IPC: 0.25963 cumulative IPC: 0.339853 (Simulation time: 0 hr 21 min 57 sec) 
Heartbeat CPU 0 instructions: 150000002 cycles: 309678131 heartbeat IPC: 0.369872 cumulative IPC: 0.342634 (Simulation time: 0 hr 23 min 30 sec) 
*** Reached end of trace for Core: 0 Repeating trace: traces/spec2k17/srv_11.champsimtrace.xz
Heartbeat CPU 0 instructions: 160000003 cycles: 333372246 heartbeat IPC: 0.422046 cumulative IPC: 0.348597 (Simulation time: 0 hr 24 min 49 sec) 
Heartbeat CPU 0 instructions: 170000000 cycles: 370673077 heartbeat IPC: 0.26809 cumulative IPC: 0.340086 (Simulation time: 0 hr 26 min 56 sec) 
Heartbeat CPU 0 instructions: 180000001 cycles: 398902301 heartbeat IPC: 0.354243 cumulative IPC: 0.341135 (Simulation time: 0 hr 28 min 31 sec) 
*** Reached end of trace for Core: 0 Repeating trace: traces/spec2k17/srv_11.champsimtrace.xz
Heartbeat CPU 0 instructions: 190000003 cycles: 422401738 heartbeat IPC: 0.425542 cumulative IPC: 0.346038 (Simulation time: 0 hr 29 min 51 sec) 
Heartbeat CPU 0 instructions: 200000000 cycles: 458655932 heartbeat IPC: 0.27583 cumulative IPC: 0.340264 (Simulation time: 0 hr 31 min 51 sec) 
Heartbeat CPU 0 instructions: 210000001 cycles: 488077499 heartbeat IPC: 0.339887 cumulative IPC: 0.34024 (Simulation time: 0 hr 33 min 36 sec) 
*** Reached end of trace for Core: 0 Repeating trace: traces/spec2k17/srv_11.champsimtrace.xz
Heartbeat CPU 0 instructions: 220000000 cycles: 511641042 heartbeat IPC: 0.424384 cumulative IPC: 0.344255 (Simulation time: 0 hr 34 min 52 sec) 
Heartbeat CPU 0 instructions: 230000000 cycles: 546624237 heartbeat IPC: 0.285852 cumulative IPC: 0.340392 (Simulation time: 0 hr 36 min 14 sec) 
Heartbeat CPU 0 instructions: 240000002 cycles: 577255439 heartbeat IPC: 0.326465 cumulative IPC: 0.339629 (Simulation time: 0 hr 37 min 21 sec) 
*** Reached end of trace for Core: 0 Repeating trace: traces/spec2k17/srv_11.champsimtrace.xz
Heartbeat CPU 0 instructions: 250000002 cycles: 600791831 heartbeat IPC: 0.424874 cumulative IPC: 0.343071 (Simulation time: 0 hr 38 min 11 sec) 
Finished CPU 0 instructions: 200000002 cycles: 582970324 cumulative IPC: 0.343071 (Simulation time: 0 hr 38 min 11 sec) 

ChampSim completed all CPUs

Region of Interest Statistics

CPU 0 cumulative IPC: 0.343071 instructions: 200000002 cycles: 582970324
ITLB TOTAL     ACCESS:   37990802  HIT:   37451325  MISS:     539477  HIT %:      98.58  MISS %:    1.42002   MPKI: 2.69738
ITLB LOAD TRANSLATION ACCESS:   37990802  HIT:   37451325  MISS:     539477  HIT %:      98.58  MISS %:    1.42002   MPKI: 2.69738
ITLB PREFETCH  REQUESTED:          0  ISSUED:          0  USEFUL:          0  USELESS:          0
ITLB USEFUL LOAD PREFETCHES:          0 PREFETCH ISSUED TO LOWER LEVEL:          0  ACCURACY: -nan
ITLB TIMELY PREFETCHES:          0 LATE PREFETCHES: 0 DROPPED PREFETCHES: 0
ITLB PREFETCHES SAME FILL-ORIGIN LEVEL: 0 DIFFERENT FILL-ORIGIN LEVEL: 0
ITLB AVERAGE MISS LATENCY: 16.4318 cycles
ITLB RQ	ACCESS:   43893349	FORWARD:          0	MERGED:    5773840	TO_CACHE:   38119509

DTLB TOTAL     ACCESS:   43867883  HIT:   34881283  MISS:    8986600  HIT %:    79.5144  MISS %:    20.4856   MPKI: 44.933
DTLB LOAD TRANSLATION ACCESS:   43867883  HIT:   34881283  MISS:    8986600  HIT %:    79.5144  MISS %:    20.4856   MPKI: 44.933
DTLB PREFETCH  REQUESTED:          0  ISSUED:          0  USEFUL:          0  USELESS:          0
DTLB USEFUL LOAD PREFETCHES:          0 PREFETCH ISSUED TO LOWER LEVEL:          0  ACCURACY: -nan
DTLB TIMELY PREFETCHES:          0 LATE PREFETCHES: 0 DROPPED PREFETCHES: 0
DTLB PREFETCHES SAME FILL-ORIGIN LEVEL: 0 DIFFERENT FILL-ORIGIN LEVEL: 0
DTLB AVERAGE MISS LATENCY: 9.98365 cycles
DTLB RQ	ACCESS:   58958407	FORWARD:          0	MERGED:   14879068	TO_CACHE:   44079339

STLB TOTAL     ACCESS:   10033554  HIT:    9709846  MISS:     323708  HIT %:    96.7737  MISS %:    3.22625   MPKI: 1.61854
STLB LOAD TRANSLATION ACCESS:    9526077  HIT:    9209853  MISS:     316224  HIT %:    96.6804  MISS %:    3.31956   MPKI: 1.58112
STLB TRANSLATION FROM L1D PREFETCHER ACCESS:     507477  HIT:     499993  MISS:       7484  HIT %:    98.5253  MISS %:    1.47475   MPKI: 0.03742
STLB PREFETCH  REQUESTED:          0  ISSUED:          0  USEFUL:       6134  USELESS:       1350
STLB USEFUL LOAD PREFETCHES:       6134 PREFETCH ISSUED TO LOWER LEVEL:          0  ACCURACY: inf
STLB TIMELY PREFETCHES:       6134 LATE PREFETCHES: 72 DROPPED PREFETCHES: 535666
STLB PREFETCHES SAME FILL-ORIGIN LEVEL: 0 DIFFERENT FILL-ORIGIN LEVEL: 0
STLB AVERAGE MISS LATENCY: 41.6073 cycles
STLB RQ	ACCESS:   10802158	FORWARD:          0	MERGED:     215520	TO_CACHE:   10586638

STLB Hit, L1D data hit: 0
STLB Hit, L2C data hit: 0
STLB Hit, LLC data hit: 0
STLB Hit, LLC data miss: 0
STLB STLB hints to L2: 0
L1D TOTAL     ACCESS:   59215724  HIT:   46784094  MISS:   12431630  HIT %:    79.0062  MISS %:    20.9938   MPKI: 62.1581
L1D LOAD      ACCESS:   41027626  HIT:   29042383  MISS:   11985243  HIT %:    70.7874  MISS %:    29.2126   MPKI: 59.9262
L1D RFO       ACCESS:   17531106  HIT:   17164745  MISS:     366361  HIT %:    97.9102  MISS %:    2.08978   MPKI: 1.8318
L1D PREFETCH  ACCESS:     656992  HIT:     576966  MISS:      80026  HIT %:    87.8193  MISS %:    12.1807   MPKI: 0.40013
AGUS PREFETCH L1 MISS: 0
L1D PREFETCH  REQUESTED:   13809335  ISSUED:   12593884  USEFUL:      23205  USELESS:      56858
L1D USEFUL LOAD PREFETCHES:      23205 PREFETCH ISSUED TO LOWER LEVEL:      84902  ACCURACY: 27.3315
L1D TIMELY PREFETCHES:      23205 LATE PREFETCHES: 4826 DROPPED PREFETCHES: 596352
L1D PREFETCHES SAME FILL-ORIGIN LEVEL: 84902 DIFFERENT FILL-ORIGIN LEVEL: 0
L1D AVERAGE MISS LATENCY: 120076 cycles
L1D RQ	ACCESS:   54029992	FORWARD:          0	MERGED:   12741999	TO_CACHE:   41126584
L1D WQ	ACCESS:   18064452	FORWARD:     163051	MERGED:     232629	TO_CACHE:   17831823
L1D PQ	ACCESS:   11317803	FORWARD:          0	MERGED:   10040080	TO_CACHE:    1276081

L1D UNIQUE REGIONS ACCESSED: 0
L1D REGIONS CONFLICTS: 0
L1D Cross Page Prefetch Requests: 4020513
L1D Same Page Prefetch Requests: 13203155
L1D ROI Sum of L1D PQ occupancy: 75461784
L1D PREFETCHES PUSHED FROM L2C: 0
L1I TOTAL     ACCESS:   42777140  HIT:   39354998  MISS:    3422142  HIT %:    92.0001  MISS %:    7.99993   MPKI: 17.1107
L1I LOAD      ACCESS:   42777140  HIT:   39354998  MISS:    3422142  HIT %:    92.0001  MISS %:    7.99993   MPKI: 17.1107
L1I PREFETCH  REQUESTED:          0  ISSUED:          0  USEFUL:          0  USELESS:          0
L1I USEFUL LOAD PREFETCHES:          0 PREFETCH ISSUED TO LOWER LEVEL:          0  ACCURACY: -nan
L1I TIMELY PREFETCHES:          0 LATE PREFETCHES: 0 DROPPED PREFETCHES: 0
L1I PREFETCHES SAME FILL-ORIGIN LEVEL: 0 DIFFERENT FILL-ORIGIN LEVEL: 0
L1I AVERAGE MISS LATENCY: 28.4869 cycles
L1I RQ	ACCESS:   65990160	FORWARD:          0	MERGED:   22096811	TO_CACHE:   43893349

BTB TOTAL     ACCESS:   33562539  HIT:   29061289  MISS:    4501250  HIT %:    86.5885  MISS %:    13.4115   MPKI: 22.5062
BTB BRANCH_DIRECT_JUMP	ACCESS:    1685269  HIT:    1483558  MISS:     201711
BTB BRANCH_INDIRECT	ACCESS:   19828015  HIT:   17476346  MISS:    2351669
BTB BRANCH_CONDITIONAL	ACCESS:    4608066  HIT:    4287796  MISS:     320270
BTB BRANCH_DIRECT_CALL	ACCESS:    2993939  HIT:    2599188  MISS:     394751
BTB BRANCH_INDIRECT_CALL	ACCESS:     724221  HIT:     681906  MISS:      42315
BTB BRANCH_RETURN	ACCESS:    3723029  HIT:    2532495  MISS:    1190534
BTB BRANCH_OTHER ACCESS:          0  HIT:          0  MISS:          0

L2C TOTAL     ACCESS:   17743957  HIT:   14992825  MISS:    2751132  HIT %:    84.4954  MISS %:    15.5046   MPKI: 13.7557
L2C LOAD      ACCESS:   15402495  HIT:   13045750  MISS:    2356745  HIT %:    84.6989  MISS %:    15.3011   MPKI: 11.7837
L2C DATA LOAD MPKI: 3.95404
L2C INSTRUCTION LOAD MPKI: 7.82968
L2C RFO       ACCESS:     366311  HIT:     243757  MISS:     122554  HIT %:    66.5437  MISS %:    33.4563   MPKI: 0.61277
L2C PREFETCH  ACCESS:      84899  HIT:      38001  MISS:      46898  HIT %:    44.7602  MISS %:    55.2398   MPKI: 0.23449
AGUS PREFETCH L1 MISS: 0
L2C DATA PREFETCH MPKI: 0.23449
L2C INSTRUCTION PREFETCH MPKI: 0
L2C WRITEBACK ACCESS:     811132  HIT:     770608  MISS:      40524  HIT %:     95.004  MISS %:    4.99598   MPKI: 0.20262
L2C LOAD TRANSLATION ACCESS:     400457  HIT:     253665  MISS:     146792  HIT %:    63.3439  MISS %:    36.6561   MPKI: 0.73396
L2C TRANSLATION FROM L1D PREFETCHER ACCESS:     678663  HIT:     641044  MISS:      37619  HIT %:    94.4569  MISS %:     5.5431   MPKI: 0.188095
L2C PREFETCH  REQUESTED:          0  ISSUED:          0  USEFUL:      20578  USELESS:      64163
L2C USEFUL LOAD PREFETCHES:      20578 PREFETCH ISSUED TO LOWER LEVEL:      46898  ACCURACY: 43.8782
L2C TIMELY PREFETCHES:      20578 LATE PREFETCHES: 0 DROPPED PREFETCHES: 0
L2C PREFETCHES SAME FILL-ORIGIN LEVEL: 0 DIFFERENT FILL-ORIGIN LEVEL: 0
L2C AVERAGE MISS LATENCY: 42.1435 cycles
L2C RQ	ACCESS:   16847990	FORWARD:          0	MERGED:          0	TO_CACHE:   16847926
L2C WQ	ACCESS:     811132	FORWARD:         67	MERGED:          0	TO_CACHE:     811132
L2C PQ	ACCESS:      84902	FORWARD:          0	MERGED:          0	TO_CACHE:      84899

L2C Instructions Evicting Data 566561
L2C Translations Evicting Data 66802
L2C Data Evicting Data 354347
L2C Instructions Evicting Instructions 893207
L2C Translations Evicting Instructions 106648
L2C Data Evicting Instructions 541471
L2C Instructions Evicting Translations 106168
L2C Translations Evicting Translations 10961
L2C Data Evicting Translations 64443
L2C Dense regions hint from L2: 0
PSCL5 TOTAL     ACCESS:     765008  HIT:     765008  MISS:          0  HIT %:        100  MISS %:          0   MPKI: 0
PSCL5 LOAD TRANSLATION ACCESS:     316152  HIT:     316152  MISS:          0  HIT %:        100  MISS %:          0   MPKI: 0
PSCL5 TRANSLATION FROM L1D PREFETCHER ACCESS:     448856  HIT:     448856  MISS:          0  HIT %:        100  MISS %:          0   MPKI: 0
PSCL5 PREFETCH  REQUESTED:          0  ISSUED:          0  USEFUL:          0  USELESS:          0
PSCL5 USEFUL LOAD PREFETCHES:          0 PREFETCH ISSUED TO LOWER LEVEL:          0  ACCURACY: -nan
PSCL5 TIMELY PREFETCHES:          0 LATE PREFETCHES: 0 DROPPED PREFETCHES: 0
PSCL5 PREFETCHES SAME FILL-ORIGIN LEVEL: 0 DIFFERENT FILL-ORIGIN LEVEL: 0

PSCL4 TOTAL     ACCESS:     685165  HIT:     684348  MISS:        817  HIT %:    99.8808  MISS %:   0.119241   MPKI: 0.004085
PSCL4 LOAD TRANSLATION ACCESS:     293396  HIT:     292579  MISS:        817  HIT %:    99.7215  MISS %:   0.278463   MPKI: 0.004085
PSCL4 TRANSLATION FROM L1D PREFETCHER ACCESS:     391769  HIT:     391769  MISS:          0  HIT %:        100  MISS %:          0   MPKI: 0
PSCL4 PREFETCH  REQUESTED:          0  ISSUED:          0  USEFUL:          0  USELESS:          0
PSCL4 USEFUL LOAD PREFETCHES:          0 PREFETCH ISSUED TO LOWER LEVEL:          0  ACCURACY: -nan
PSCL4 TIMELY PREFETCHES:          0 LATE PREFETCHES: 0 DROPPED PREFETCHES: 0
PSCL4 PREFETCHES SAME FILL-ORIGIN LEVEL: 0 DIFFERENT FILL-ORIGIN LEVEL: 0

PSCL3 TOTAL     ACCESS:     624087  HIT:     621490  MISS:       2597  HIT %:    99.5839  MISS %:   0.416128   MPKI: 0.012985
PSCL3 LOAD TRANSLATION ACCESS:     313669  HIT:     311072  MISS:       2597  HIT %:    99.1721  MISS %:   0.827943   MPKI: 0.012985
PSCL3 TRANSLATION FROM L1D PREFETCHER ACCESS:     310418  HIT:     310418  MISS:          0  HIT %:        100  MISS %:          0   MPKI: 0
PSCL3 PREFETCH  REQUESTED:          0  ISSUED:          0  USEFUL:          0  USELESS:          0
PSCL3 USEFUL LOAD PREFETCHES:          0 PREFETCH ISSUED TO LOWER LEVEL:          0  ACCURACY: -nan
PSCL3 TIMELY PREFETCHES:          0 LATE PREFETCHES: 0 DROPPED PREFETCHES: 0
PSCL3 PREFETCHES SAME FILL-ORIGIN LEVEL: 0 DIFFERENT FILL-ORIGIN LEVEL: 0

PSCL2 TOTAL     ACCESS:     379369  HIT:     295848  MISS:      83521  HIT %:    77.9842  MISS %:    22.0158   MPKI: 0.417605
PSCL2 LOAD TRANSLATION ACCESS:     318767  HIT:     235246  MISS:      83521  HIT %:    73.7987  MISS %:    26.2013   MPKI: 0.417605
PSCL2 TRANSLATION FROM L1D PREFETCHER ACCESS:      60602  HIT:      60602  MISS:          0  HIT %:        100  MISS %:          0   MPKI: 0
PSCL2 PREFETCH  REQUESTED:          0  ISSUED:          0  USEFUL:          0  USELESS:          0
PSCL2 USEFUL LOAD PREFETCHES:          0 PREFETCH ISSUED TO LOWER LEVEL:          0  ACCURACY: -nan
PSCL2 TIMELY PREFETCHES:          0 LATE PREFETCHES: 0 DROPPED PREFETCHES: 0
PSCL2 PREFETCHES SAME FILL-ORIGIN LEVEL: 0 DIFFERENT FILL-ORIGIN LEVEL: 0

LLC TOTAL     ACCESS:    3049572  HIT:    2842772  MISS:     206800  HIT %:    93.2187  MISS %:    6.78128   MPKI: 1.034
LLC LOAD      ACCESS:    2356745  HIT:    2204927  MISS:     151818  HIT %:    93.5581  MISS %:    6.44185   MPKI: 0.75909
LLC RFO       ACCESS:     122554  HIT:      92099  MISS:      30455  HIT %:    75.1497  MISS %:    24.8503   MPKI: 0.152275
LLC PREFETCH  ACCESS:      46894  HIT:      30611  MISS:      16283  HIT %:     65.277  MISS %:     34.723   MPKI: 0.081415
AGUS PREFETCH L1 MISS: 0
LLC WRITEBACK ACCESS:     338968  HIT:     336682  MISS:       2286  HIT %:    99.3256  MISS %:     0.6744   MPKI: 0.01143
LLC LOAD TRANSLATION ACCESS:     146792  HIT:     143483  MISS:       3309  HIT %:    97.7458  MISS %:    2.25421   MPKI: 0.016545
LLC TRANSLATION FROM L1D PREFETCHER ACCESS:      37619  HIT:      34970  MISS:       2649  HIT %:    92.9583  MISS %:    7.04165   MPKI: 0.013245
LLC PREFETCH  REQUESTED:          0  ISSUED:          0  USEFUL:       5531  USELESS:      13978
LLC USEFUL LOAD PREFETCHES:       5531 PREFETCH ISSUED TO LOWER LEVEL:      16283  ACCURACY: 33.9679
LLC TIMELY PREFETCHES:       5531 LATE PREFETCHES: 0 DROPPED PREFETCHES: 0
LLC PREFETCHES SAME FILL-ORIGIN LEVEL: 0 DIFFERENT FILL-ORIGIN LEVEL: 0
LLC AVERAGE MISS LATENCY: 167.42 cycles
LLC RQ	ACCESS:    2663710	FORWARD:          0	MERGED:          0	TO_CACHE:    2663710
LLC WQ	ACCESS:     338968	FORWARD:          4	MERGED:          0	TO_CACHE:     338968
LLC PQ	ACCESS:      46898	FORWARD:          0	MERGED:          0	TO_CACHE:      46894

LLC Dense regions hint to LLC: 0

RAW hits: 2262815
Loads Generated: 56292807
Loads sent to L1D: 54029992
Stores Generated: 18064421
Stores sent to L1D: 18064452
Major fault: 0 Minor fault: 4241
Allocated PAGES: 4241

DRAM Statistics
 CHANNEL 0
 RQ ROW_BUFFER_HIT:      42737  ROW_BUFFER_MISS:     161776
 DBUS_CONGESTED:        141
 WQ ROW_BUFFER_HIT:      18005  ROW_BUFFER_MISS:     116310  FULL:          0

 AVG_CONGESTED_CYCLE: 4
 All warmup complete: 2
Channel 0 Bank busy for read cycles: 0
Channel 0 Bank busy for write cycles: 0
Channel 0
Rank 0
0banks busy for read cycles: 546851039
0banks busy for write cycles: 76935
1banks busy for read cycles: 18098512
1banks busy for write cycles: 10954519
2banks busy for read cycles: 2188254
2banks busy for write cycles: 2130829
3banks busy for read cycles: 374353
3banks busy for write cycles: 663067
4banks busy for read cycles: 173746
4banks busy for write cycles: 340322
5banks busy for read cycles: 80468
5banks busy for write cycles: 205768
6banks busy for read cycles: 63059
6banks busy for write cycles: 139997
7banks busy for read cycles: 60349
7banks busy for write cycles: 119701
8banks busy for read cycles: 127271
8banks busy for write cycles: 322136

CPU 0 Branch Prediction Accuracy: 99.8224% MPKI: 0.38789 Average ROB Occupancy at Mispredict: 29.3374
Branch types
NOT_BRANCH: 156307724 78.1539%
BRANCH_DIRECT_JUMP: 1685269 0.842634%
BRANCH_INDIRECT: 19828015 9.91401%
BRANCH_CONDITIONAL: 14737476 7.36874%
BRANCH_DIRECT_CALL: 2993939 1.49697%
BRANCH_INDIRECT_CALL: 724221 0.36211%
BRANCH_RETURN: 3723029 1.86151%
BRANCH_OTHER: 0 0%

DRAM PAGES: 1048576
Allocated PAGES: 4241
