
*** ChampSim Multicore Out-of-Order Simulator ***

Warmup Instructions: 50000000
Simulation Instructions: 200000000
Number of CPUs: 1
LLC sets: 2048
LLC ways: 16
Off-chip DRAM Size: 4096 MB Channels: 1 Width: 64-bit Data Rate: 6400 MT/s
CPU 0 runs traces/spec2k17/srv_1.champsimtrace.xz
.xz
BTB has LRU replacement policy
ITLB has LRU replacement policy
DTLB has LRU replacement policy
STLB has LRU replacement policy
L1I has LRU replacement policy
L1D has LRU replacement policy
Initialize SRRIP state for L2C
Initialize DRRIP state for LLC
Heartbeat CPU 0 instructions: 10000000 cycles: 4036918 heartbeat IPC: 2.47714 cumulative IPC: 2.47714 (Simulation time: 0 hr 1 min 29 sec) 
Heartbeat CPU 0 instructions: 20000003 cycles: 7375354 heartbeat IPC: 2.99542 cumulative IPC: 2.71173 (Simulation time: 0 hr 2 min 47 sec) 
Heartbeat CPU 0 instructions: 30000003 cycles: 10163167 heartbeat IPC: 3.58704 cumulative IPC: 2.95184 (Simulation time: 0 hr 3 min 47 sec) 
*** Reached end of trace for Core: 0 Repeating trace: traces/spec2k17/srv_1.champsimtrace.xz
Heartbeat CPU 0 instructions: 40000001 cycles: 14068166 heartbeat IPC: 2.56082 cumulative IPC: 2.8433 (Simulation time: 0 hr 5 min 13 sec) 
Heartbeat CPU 0 instructions: 50000001 cycles: 17531203 heartbeat IPC: 2.88764 cumulative IPC: 2.85206 (Simulation time: 0 hr 6 min 31 sec) 

Warmup complete CPU 0 instructions: 50000001 cycles: 17531203 (Simulation time: 0 hr 6 min 31 sec) 

Heartbeat CPU 0 instructions: 60000000 cycles: 41868626 heartbeat IPC: 0.41089 cumulative IPC: 0.41089 (Simulation time: 0 hr 7 min 47 sec) 
*** Reached end of trace for Core: 0 Repeating trace: traces/spec2k17/srv_1.champsimtrace.xz
Heartbeat CPU 0 instructions: 70000003 cycles: 75470356 heartbeat IPC: 0.297604 cumulative IPC: 0.34519 (Simulation time: 0 hr 9 min 36 sec) 
Heartbeat CPU 0 instructions: 80000001 cycles: 106696252 heartbeat IPC: 0.320247 cumulative IPC: 0.336455 (Simulation time: 0 hr 11 min 9 sec) 
Heartbeat CPU 0 instructions: 90000000 cycles: 131122925 heartbeat IPC: 0.409389 cumulative IPC: 0.352138 (Simulation time: 0 hr 12 min 23 sec) 
*** Reached end of trace for Core: 0 Repeating trace: traces/spec2k17/srv_1.champsimtrace.xz
Heartbeat CPU 0 instructions: 100000000 cycles: 163621376 heartbeat IPC: 0.307707 cumulative IPC: 0.342254 (Simulation time: 0 hr 14 min 8 sec) 
Heartbeat CPU 0 instructions: 110000000 cycles: 195918278 heartbeat IPC: 0.309627 cumulative IPC: 0.336347 (Simulation time: 0 hr 15 min 54 sec) 
Heartbeat CPU 0 instructions: 120000001 cycles: 220276029 heartbeat IPC: 0.410547 cumulative IPC: 0.345262 (Simulation time: 0 hr 17 min 10 sec) 
*** Reached end of trace for Core: 0 Repeating trace: traces/spec2k17/srv_1.champsimtrace.xz
Heartbeat CPU 0 instructions: 130000000 cycles: 251671189 heartbeat IPC: 0.31852 cumulative IPC: 0.341676 (Simulation time: 0 hr 18 min 43 sec) 
Heartbeat CPU 0 instructions: 140000002 cycles: 285040793 heartbeat IPC: 0.299674 cumulative IPC: 0.336437 (Simulation time: 0 hr 20 min 35 sec) 
Heartbeat CPU 0 instructions: 150000002 cycles: 309326185 heartbeat IPC: 0.41177 cumulative IPC: 0.342706 (Simulation time: 0 hr 21 min 49 sec) 
*** Reached end of trace for Core: 0 Repeating trace: traces/spec2k17/srv_1.champsimtrace.xz
Heartbeat CPU 0 instructions: 160000000 cycles: 339633450 heartbeat IPC: 0.329954 cumulative IPC: 0.341506 (Simulation time: 0 hr 23 min 23 sec) 
Heartbeat CPU 0 instructions: 170000000 cycles: 373964338 heartbeat IPC: 0.291283 cumulative IPC: 0.336669 (Simulation time: 0 hr 25 min 7 sec) 
Heartbeat CPU 0 instructions: 180000000 cycles: 398323092 heartbeat IPC: 0.41053 cumulative IPC: 0.341394 (Simulation time: 0 hr 26 min 19 sec) 
*** Reached end of trace for Core: 0 Repeating trace: traces/spec2k17/srv_1.champsimtrace.xz
Heartbeat CPU 0 instructions: 190000001 cycles: 427569393 heartbeat IPC: 0.341924 cumulative IPC: 0.341432 (Simulation time: 0 hr 27 min 51 sec) 
Heartbeat CPU 0 instructions: 200000002 cycles: 462975301 heartbeat IPC: 0.282439 cumulative IPC: 0.336743 (Simulation time: 0 hr 29 min 51 sec) 
Heartbeat CPU 0 instructions: 210000002 cycles: 487303013 heartbeat IPC: 0.411054 cumulative IPC: 0.340591 (Simulation time: 0 hr 31 min 6 sec) 
*** Reached end of trace for Core: 0 Repeating trace: traces/spec2k17/srv_1.champsimtrace.xz
Heartbeat CPU 0 instructions: 220000000 cycles: 515476196 heartbeat IPC: 0.354947 cumulative IPC: 0.341403 (Simulation time: 0 hr 32 min 25 sec) 
Heartbeat CPU 0 instructions: 230000000 cycles: 552292383 heartbeat IPC: 0.27162 cumulative IPC: 0.336599 (Simulation time: 0 hr 34 min 12 sec) 
Heartbeat CPU 0 instructions: 240000000 cycles: 576260768 heartbeat IPC: 0.417216 cumulative IPC: 0.340057 (Simulation time: 0 hr 35 min 20 sec) 
*** Reached end of trace for Core: 0 Repeating trace: traces/spec2k17/srv_1.champsimtrace.xz
Heartbeat CPU 0 instructions: 250000001 cycles: 602736966 heartbeat IPC: 0.377698 cumulative IPC: 0.34176 (Simulation time: 0 hr 36 min 28 sec) 
Finished CPU 0 instructions: 200000000 cycles: 585205763 cumulative IPC: 0.34176 (Simulation time: 0 hr 36 min 28 sec) 

ChampSim completed all CPUs

Region of Interest Statistics

CPU 0 cumulative IPC: 0.34176 instructions: 200000000 cycles: 585205763
ITLB TOTAL     ACCESS:   38213776  HIT:   37663449  MISS:     550327  HIT %:    98.5599  MISS %:    1.44013   MPKI: 2.75163
ITLB LOAD TRANSLATION ACCESS:   38213776  HIT:   37663449  MISS:     550327  HIT %:    98.5599  MISS %:    1.44013   MPKI: 2.75163
ITLB PREFETCH  REQUESTED:          0  ISSUED:          0  USEFUL:          0  USELESS:          0
ITLB USEFUL LOAD PREFETCHES:          0 PREFETCH ISSUED TO LOWER LEVEL:          0  ACCURACY: -nan
ITLB TIMELY PREFETCHES:          0 LATE PREFETCHES: 0 DROPPED PREFETCHES: 0
ITLB PREFETCHES SAME FILL-ORIGIN LEVEL: 0 DIFFERENT FILL-ORIGIN LEVEL: 0
ITLB AVERAGE MISS LATENCY: 16.3323 cycles
ITLB RQ	ACCESS:   43868767	FORWARD:          0	MERGED:    5522017	TO_CACHE:   38346750

DTLB TOTAL     ACCESS:   43925548  HIT:   35234275  MISS:    8691273  HIT %:    80.2136  MISS %:    19.7864   MPKI: 43.4564
DTLB LOAD TRANSLATION ACCESS:   43925548  HIT:   35234275  MISS:    8691273  HIT %:    80.2136  MISS %:    19.7864   MPKI: 43.4564
DTLB PREFETCH  REQUESTED:          0  ISSUED:          0  USEFUL:          0  USELESS:          0
DTLB USEFUL LOAD PREFETCHES:          0 PREFETCH ISSUED TO LOWER LEVEL:          0  ACCURACY: -nan
DTLB TIMELY PREFETCHES:          0 LATE PREFETCHES: 0 DROPPED PREFETCHES: 0
DTLB PREFETCHES SAME FILL-ORIGIN LEVEL: 0 DIFFERENT FILL-ORIGIN LEVEL: 0
DTLB AVERAGE MISS LATENCY: 10.059 cycles
DTLB RQ	ACCESS:   59110140	FORWARD:          0	MERGED:   15013749	TO_CACHE:   44096391

STLB TOTAL     ACCESS:    9570423  HIT:    9242927  MISS:     327496  HIT %:     96.578  MISS %:    3.42196   MPKI: 1.63748
STLB LOAD TRANSLATION ACCESS:    9241600  HIT:    8916955  MISS:     324645  HIT %:    96.4871  MISS %:    3.51287   MPKI: 1.62322
STLB TRANSLATION FROM L1D PREFETCHER ACCESS:     328823  HIT:     325972  MISS:       2851  HIT %:     99.133  MISS %:   0.867032   MPKI: 0.014255
STLB PREFETCH  REQUESTED:          0  ISSUED:          0  USEFUL:       2624  USELESS:        225
STLB USEFUL LOAD PREFETCHES:       2624 PREFETCH ISSUED TO LOWER LEVEL:          0  ACCURACY: inf
STLB TIMELY PREFETCHES:       2624 LATE PREFETCHES: 61 DROPPED PREFETCHES: 571795
STLB PREFETCHES SAME FILL-ORIGIN LEVEL: 0 DIFFERENT FILL-ORIGIN LEVEL: 0
STLB AVERAGE MISS LATENCY: 201.069 cycles
STLB RQ	ACCESS:   10847892	FORWARD:          0	MERGED:     679990	TO_CACHE:   10167902

STLB Hit, L1D data hit: 0
STLB Hit, L2C data hit: 0
STLB Hit, LLC data hit: 0
STLB Hit, LLC data miss: 0
STLB STLB hints to L2: 0
L1D TOTAL     ACCESS:   59416360  HIT:   47204842  MISS:   12211518  HIT %:    79.4475  MISS %:    20.5525   MPKI: 61.0576
L1D LOAD      ACCESS:   41066532  HIT:   29306465  MISS:   11760067  HIT %:    71.3634  MISS %:    28.6366   MPKI: 58.8003
L1D RFO       ACCESS:   17661489  HIT:   17290599  MISS:     370890  HIT %:       97.9  MISS %:    2.09999   MPKI: 1.85445
L1D PREFETCH  ACCESS:     688339  HIT:     607778  MISS:      80561  HIT %:    88.2963  MISS %:    11.7037   MPKI: 0.402805
AGUS PREFETCH L1 MISS: 0
L1D PREFETCH  REQUESTED:   67488753  ISSUED:   19327144  USEFUL:      15945  USELESS:      64637
L1D USEFUL LOAD PREFETCHES:      15945 PREFETCH ISSUED TO LOWER LEVEL:      81992  ACCURACY: 19.447
L1D TIMELY PREFETCHES:      15945 LATE PREFETCHES: 1423 DROPPED PREFETCHES: 903673
L1D PREFETCHES SAME FILL-ORIGIN LEVEL: 81992 DIFFERENT FILL-ORIGIN LEVEL: 0
L1D AVERAGE MISS LATENCY: 37258.3 cycles
L1D RQ	ACCESS:   54066120	FORWARD:          0	MERGED:   12739942	TO_CACHE:   41164388
L1D WQ	ACCESS:   18253453	FORWARD:     164875	MERGED:     307701	TO_CACHE:   17945752
L1D PQ	ACCESS:   17720852	FORWARD:          0	MERGED:   16111475	TO_CACHE:    1606292

L1D UNIQUE REGIONS ACCESSED: 0
L1D REGIONS CONFLICTS: 0
L1D Cross Page Prefetch Requests: 3537266
L1D Same Page Prefetch Requests: 21458973
L1D ROI Sum of L1D PQ occupancy: 98847419
L1D PREFETCHES PUSHED FROM L2C: 0
L1I TOTAL     ACCESS:   42790119  HIT:   39343734  MISS:    3446385  HIT %:    91.9458  MISS %:    8.05416   MPKI: 17.2319
L1I LOAD      ACCESS:   42790119  HIT:   39343734  MISS:    3446385  HIT %:    91.9458  MISS %:    8.05416   MPKI: 17.2319
L1I PREFETCH  REQUESTED:          0  ISSUED:          0  USEFUL:          0  USELESS:          0
L1I USEFUL LOAD PREFETCHES:          0 PREFETCH ISSUED TO LOWER LEVEL:          0  ACCURACY: -nan
L1I TIMELY PREFETCHES:          0 LATE PREFETCHES: 0 DROPPED PREFETCHES: 0
L1I PREFETCHES SAME FILL-ORIGIN LEVEL: 0 DIFFERENT FILL-ORIGIN LEVEL: 0
L1I AVERAGE MISS LATENCY: 28.6249 cycles
L1I RQ	ACCESS:   66225138	FORWARD:          0	MERGED:   22356371	TO_CACHE:   43868767

BTB TOTAL     ACCESS:   33996129  HIT:   29348304  MISS:    4647825  HIT %:    86.3284  MISS %:    13.6716   MPKI: 23.2391
BTB BRANCH_DIRECT_JUMP	ACCESS:    1820121  HIT:    1607789  MISS:     212332
BTB BRANCH_INDIRECT	ACCESS:   19847784  HIT:   17441635  MISS:    2406149
BTB BRANCH_CONDITIONAL	ACCESS:    4748982  HIT:    4420071  MISS:     328911
BTB BRANCH_DIRECT_CALL	ACCESS:    3062626  HIT:    2647973  MISS:     414653
BTB BRANCH_INDIRECT_CALL	ACCESS:     723674  HIT:     676539  MISS:      47135
BTB BRANCH_RETURN	ACCESS:    3792942  HIT:    2554297  MISS:    1238645
BTB BRANCH_OTHER ACCESS:          0  HIT:          0  MISS:          0

L2C TOTAL     ACCESS:   17502071  HIT:   14723006  MISS:    2779065  HIT %:    84.1215  MISS %:    15.8785   MPKI: 13.8953
L2C LOAD      ACCESS:   15204996  HIT:   12812287  MISS:    2392709  HIT %:    84.2637  MISS %:    15.7363   MPKI: 11.9635
L2C DATA LOAD MPKI: 3.98484
L2C INSTRUCTION LOAD MPKI: 7.9787
L2C RFO       ACCESS:     370875  HIT:     245665  MISS:     125210  HIT %:    66.2393  MISS %:    33.7607   MPKI: 0.62605
L2C PREFETCH  ACCESS:      81992  HIT:      25624  MISS:      56368  HIT %:    31.2518  MISS %:    68.7482   MPKI: 0.28184
AGUS PREFETCH L1 MISS: 0
L2C DATA PREFETCH MPKI: 0.28184
L2C INSTRUCTION PREFETCH MPKI: 0
L2C WRITEBACK ACCESS:     799923  HIT:     762279  MISS:      37644  HIT %:     95.294  MISS %:    4.70595   MPKI: 0.18822
L2C LOAD TRANSLATION ACCESS:     411988  HIT:     259553  MISS:     152435  HIT %:    63.0001  MISS %:    36.9999   MPKI: 0.762175
L2C TRANSLATION FROM L1D PREFETCHER ACCESS:     632297  HIT:     617598  MISS:      14699  HIT %:    97.6753  MISS %:     2.3247   MPKI: 0.073495
L2C PREFETCH  REQUESTED:          0  ISSUED:          0  USEFUL:      11912  USELESS:      59253
L2C USEFUL LOAD PREFETCHES:      11912 PREFETCH ISSUED TO LOWER LEVEL:      56368  ACCURACY: 21.1326
L2C TIMELY PREFETCHES:      11912 LATE PREFETCHES: 0 DROPPED PREFETCHES: 0
L2C PREFETCHES SAME FILL-ORIGIN LEVEL: 0 DIFFERENT FILL-ORIGIN LEVEL: 0
L2C AVERAGE MISS LATENCY: 41.9973 cycles
L2C RQ	ACCESS:   16620197	FORWARD:          0	MERGED:          0	TO_CACHE:   16620156
L2C WQ	ACCESS:     799923	FORWARD:         41	MERGED:          0	TO_CACHE:     799923
L2C PQ	ACCESS:      81992	FORWARD:          0	MERGED:          0	TO_CACHE:      81992

L2C Instructions Evicting Data 580544
L2C Translations Evicting Data 61377
L2C Data Evicting Data 360178
L2C Instructions Evicting Instructions 919940
L2C Translations Evicting Instructions 95506
L2C Data Evicting Instructions 559117
L2C Instructions Evicting Translations 95256
L2C Translations Evicting Translations 10251
L2C Data Evicting Translations 59252
L2C Dense regions hint from L2: 0
PSCL5 TOTAL     ACCESS:     899255  HIT:     899255  MISS:          0  HIT %:        100  MISS %:          0   MPKI: 0
PSCL5 LOAD TRANSLATION ACCESS:     324584  HIT:     324584  MISS:          0  HIT %:        100  MISS %:          0   MPKI: 0
PSCL5 TRANSLATION FROM L1D PREFETCHER ACCESS:     574671  HIT:     574671  MISS:          0  HIT %:        100  MISS %:          0   MPKI: 0
PSCL5 PREFETCH  REQUESTED:          0  ISSUED:          0  USEFUL:          0  USELESS:          0
PSCL5 USEFUL LOAD PREFETCHES:          0 PREFETCH ISSUED TO LOWER LEVEL:          0  ACCURACY: -nan
PSCL5 TIMELY PREFETCHES:          0 LATE PREFETCHES: 0 DROPPED PREFETCHES: 0
PSCL5 PREFETCHES SAME FILL-ORIGIN LEVEL: 0 DIFFERENT FILL-ORIGIN LEVEL: 0

PSCL4 TOTAL     ACCESS:     775185  HIT:     774377  MISS:        808  HIT %:    99.8958  MISS %:   0.104233   MPKI: 0.00404
PSCL4 LOAD TRANSLATION ACCESS:     314070  HIT:     313262  MISS:        808  HIT %:    99.7427  MISS %:   0.257267   MPKI: 0.00404
PSCL4 TRANSLATION FROM L1D PREFETCHER ACCESS:     461115  HIT:     461115  MISS:          0  HIT %:        100  MISS %:          0   MPKI: 0
PSCL4 PREFETCH  REQUESTED:          0  ISSUED:          0  USEFUL:          0  USELESS:          0
PSCL4 USEFUL LOAD PREFETCHES:          0 PREFETCH ISSUED TO LOWER LEVEL:          0  ACCURACY: -nan
PSCL4 TIMELY PREFETCHES:          0 LATE PREFETCHES: 0 DROPPED PREFETCHES: 0
PSCL4 PREFETCHES SAME FILL-ORIGIN LEVEL: 0 DIFFERENT FILL-ORIGIN LEVEL: 0

PSCL3 TOTAL     ACCESS:     630419  HIT:     627790  MISS:       2629  HIT %:     99.583  MISS %:   0.417024   MPKI: 0.013145
PSCL3 LOAD TRANSLATION ACCESS:     321488  HIT:     318859  MISS:       2629  HIT %:    99.1822  MISS %:    0.81776   MPKI: 0.013145
PSCL3 TRANSLATION FROM L1D PREFETCHER ACCESS:     308931  HIT:     308931  MISS:          0  HIT %:        100  MISS %:          0   MPKI: 0
PSCL3 PREFETCH  REQUESTED:          0  ISSUED:          0  USEFUL:          0  USELESS:          0
PSCL3 USEFUL LOAD PREFETCHES:          0 PREFETCH ISSUED TO LOWER LEVEL:          0  ACCURACY: -nan
PSCL3 TIMELY PREFETCHES:          0 LATE PREFETCHES: 0 DROPPED PREFETCHES: 0
PSCL3 PREFETCHES SAME FILL-ORIGIN LEVEL: 0 DIFFERENT FILL-ORIGIN LEVEL: 0

PSCL2 TOTAL     ACCESS:     334130  HIT:     248702  MISS:      85428  HIT %:    74.4327  MISS %:    25.5673   MPKI: 0.42714
PSCL2 LOAD TRANSLATION ACCESS:     326045  HIT:     240617  MISS:      85428  HIT %:    73.7987  MISS %:    26.2013   MPKI: 0.42714
PSCL2 TRANSLATION FROM L1D PREFETCHER ACCESS:       8085  HIT:       8085  MISS:          0  HIT %:        100  MISS %:          0   MPKI: 0
PSCL2 PREFETCH  REQUESTED:          0  ISSUED:          0  USEFUL:          0  USELESS:          0
PSCL2 USEFUL LOAD PREFETCHES:          0 PREFETCH ISSUED TO LOWER LEVEL:          0  ACCURACY: -nan
PSCL2 TIMELY PREFETCHES:          0 LATE PREFETCHES: 0 DROPPED PREFETCHES: 0
PSCL2 PREFETCHES SAME FILL-ORIGIN LEVEL: 0 DIFFERENT FILL-ORIGIN LEVEL: 0

LLC TOTAL     ACCESS:    3073915  HIT:    2862448  MISS:     211467  HIT %:    93.1206  MISS %:     6.8794   MPKI: 1.05733
LLC LOAD      ACCESS:    2392709  HIT:    2233652  MISS:     159057  HIT %:    93.3524  MISS %:    6.64757   MPKI: 0.795285
LLC RFO       ACCESS:     125210  HIT:      95601  MISS:      29609  HIT %:    76.3525  MISS %:    23.6475   MPKI: 0.148045
LLC PREFETCH  ACCESS:      56368  HIT:      40558  MISS:      15810  HIT %:    71.9522  MISS %:    28.0478   MPKI: 0.07905
AGUS PREFETCH L1 MISS: 0
LLC WRITEBACK ACCESS:     332494  HIT:     330472  MISS:       2022  HIT %:    99.3919  MISS %:   0.608131   MPKI: 0.01011
LLC LOAD TRANSLATION ACCESS:     152435  HIT:     148114  MISS:       4321  HIT %:    97.1653  MISS %:    2.83465   MPKI: 0.021605
LLC TRANSLATION FROM L1D PREFETCHER ACCESS:      14699  HIT:      14051  MISS:        648  HIT %:    95.5915  MISS %:    4.40846   MPKI: 0.00324
LLC PREFETCH  REQUESTED:          0  ISSUED:          0  USEFUL:       3380  USELESS:      13669
LLC USEFUL LOAD PREFETCHES:       3380 PREFETCH ISSUED TO LOWER LEVEL:      15810  ACCURACY: 21.3789
LLC TIMELY PREFETCHES:       3380 LATE PREFETCHES: 0 DROPPED PREFETCHES: 0
LLC PREFETCHES SAME FILL-ORIGIN LEVEL: 0 DIFFERENT FILL-ORIGIN LEVEL: 0
LLC AVERAGE MISS LATENCY: 163.001 cycles
LLC RQ	ACCESS:    2685053	FORWARD:          0	MERGED:          0	TO_CACHE:    2685053
LLC WQ	ACCESS:     332494	FORWARD:          0	MERGED:          0	TO_CACHE:     332494
LLC PQ	ACCESS:      56368	FORWARD:          0	MERGED:          0	TO_CACHE:      56368

LLC Dense regions hint to LLC: 0

RAW hits: 2315640
Loads Generated: 56381756
Loads sent to L1D: 54066120
Stores Generated: 18253447
Stores sent to L1D: 18253453
Major fault: 0 Minor fault: 4447
Allocated PAGES: 4447

DRAM Statistics
 CHANNEL 0
 RQ ROW_BUFFER_HIT:      45166  ROW_BUFFER_MISS:     164278
 DBUS_CONGESTED:        155
 WQ ROW_BUFFER_HIT:      19115  ROW_BUFFER_MISS:     112761  FULL:          0

 AVG_CONGESTED_CYCLE: 4
 All warmup complete: 2
Channel 0 Bank busy for read cycles: 0
Channel 0 Bank busy for write cycles: 0
Channel 0
Rank 0
0banks busy for read cycles: 548877211
0banks busy for write cycles: 75736
1banks busy for read cycles: 18086255
1banks busy for write cycles: 10891041
2banks busy for read cycles: 2363569
2banks busy for write cycles: 2143313
3banks busy for read cycles: 441710
3banks busy for write cycles: 727677
4banks busy for read cycles: 204247
4banks busy for write cycles: 367148
5banks busy for read cycles: 78140
5banks busy for write cycles: 202437
6banks busy for read cycles: 58574
6banks busy for write cycles: 124003
7banks busy for read cycles: 55341
7banks busy for write cycles: 111026
8banks busy for read cycles: 110121
8banks busy for write cycles: 288215

CPU 0 Branch Prediction Accuracy: 99.8043% MPKI: 0.43045 Average ROB Occupancy at Mispredict: 29.3004
Branch types
NOT_BRANCH: 156016058 78.008%
BRANCH_DIRECT_JUMP: 1820121 0.910061%
BRANCH_INDIRECT: 19847784 9.92389%
BRANCH_CONDITIONAL: 14736604 7.3683%
BRANCH_DIRECT_CALL: 3062626 1.53131%
BRANCH_INDIRECT_CALL: 723674 0.361837%
BRANCH_RETURN: 3792942 1.89647%
BRANCH_OTHER: 0 0%

DRAM PAGES: 1048576
Allocated PAGES: 4447
