
*** ChampSim Multicore Out-of-Order Simulator ***

Warmup Instructions: 50000000
Simulation Instructions: 200000000
Number of CPUs: 1
LLC sets: 2048
LLC ways: 16
Off-chip DRAM Size: 4096 MB Channels: 1 Width: 64-bit Data Rate: 6400 MT/s
CPU 0 runs traces/spec2k17/srv_29.champsimtrace.xz
.xz
BTB has LRU replacement policy
ITLB has LRU replacement policy
DTLB has LRU replacement policy
STLB has LRU replacement policy
L1I has LRU replacement policy
L1D has LRU replacement policy
Initialize SRRIP state for L2C
Initialize DRRIP state for LLC
Heartbeat CPU 0 instructions: 10000000 cycles: 2810821 heartbeat IPC: 3.55768 cumulative IPC: 3.55768 (Simulation time: 0 hr 1 min 42 sec) 
Heartbeat CPU 0 instructions: 20000000 cycles: 5617018 heartbeat IPC: 3.56354 cumulative IPC: 3.56061 (Simulation time: 0 hr 3 min 26 sec) 
Heartbeat CPU 0 instructions: 30000003 cycles: 8425808 heartbeat IPC: 3.56025 cumulative IPC: 3.56049 (Simulation time: 0 hr 5 min 8 sec) 
*** Reached end of trace for Core: 0 Repeating trace: traces/spec2k17/srv_29.champsimtrace.xz
Heartbeat CPU 0 instructions: 40000000 cycles: 11233563 heartbeat IPC: 3.56156 cumulative IPC: 3.56076 (Simulation time: 0 hr 6 min 44 sec) 
Heartbeat CPU 0 instructions: 50000000 cycles: 14040233 heartbeat IPC: 3.56294 cumulative IPC: 3.56119 (Simulation time: 0 hr 8 min 27 sec) 

Warmup complete CPU 0 instructions: 50000004 cycles: 14040234 (Simulation time: 0 hr 8 min 27 sec) 

Heartbeat CPU 0 instructions: 60000001 cycles: 28100440 heartbeat IPC: 0.711227 cumulative IPC: 0.711227 (Simulation time: 0 hr 9 min 50 sec) 
*** Reached end of trace for Core: 0 Repeating trace: traces/spec2k17/srv_29.champsimtrace.xz
Heartbeat CPU 0 instructions: 70000000 cycles: 42243540 heartbeat IPC: 0.707058 cumulative IPC: 0.709137 (Simulation time: 0 hr 11 min 11 sec) 
Heartbeat CPU 0 instructions: 80000000 cycles: 56216021 heartbeat IPC: 0.715693 cumulative IPC: 0.711308 (Simulation time: 0 hr 12 min 29 sec) 
Heartbeat CPU 0 instructions: 90000000 cycles: 70188452 heartbeat IPC: 0.715695 cumulative IPC: 0.7124 (Simulation time: 0 hr 13 min 49 sec) 
*** Reached end of trace for Core: 0 Repeating trace: traces/spec2k17/srv_29.champsimtrace.xz
Heartbeat CPU 0 instructions: 100000001 cycles: 84239452 heartbeat IPC: 0.711693 cumulative IPC: 0.712259 (Simulation time: 0 hr 15 min 7 sec) 
Heartbeat CPU 0 instructions: 110000000 cycles: 97962830 heartbeat IPC: 0.728683 cumulative IPC: 0.714944 (Simulation time: 0 hr 16 min 24 sec) 
Heartbeat CPU 0 instructions: 120000002 cycles: 112211573 heartbeat IPC: 0.701816 cumulative IPC: 0.713039 (Simulation time: 0 hr 17 min 45 sec) 
*** Reached end of trace for Core: 0 Repeating trace: traces/spec2k17/srv_29.champsimtrace.xz
Heartbeat CPU 0 instructions: 130000002 cycles: 126171283 heartbeat IPC: 0.716347 cumulative IPC: 0.713451 (Simulation time: 0 hr 19 min 7 sec) 
Heartbeat CPU 0 instructions: 140000001 cycles: 139987990 heartbeat IPC: 0.723761 cumulative IPC: 0.714582 (Simulation time: 0 hr 20 min 28 sec) 
Heartbeat CPU 0 instructions: 150000001 cycles: 154222755 heartbeat IPC: 0.702505 cumulative IPC: 0.713356 (Simulation time: 0 hr 21 min 49 sec) 
*** Reached end of trace for Core: 0 Repeating trace: traces/spec2k17/srv_29.champsimtrace.xz
Heartbeat CPU 0 instructions: 160000001 cycles: 168225264 heartbeat IPC: 0.714158 cumulative IPC: 0.713428 (Simulation time: 0 hr 23 min 11 sec) 
Heartbeat CPU 0 instructions: 170000001 cycles: 182005755 heartbeat IPC: 0.725664 cumulative IPC: 0.714432 (Simulation time: 0 hr 24 min 29 sec) 
Heartbeat CPU 0 instructions: 180000001 cycles: 196001352 heartbeat IPC: 0.71451 cumulative IPC: 0.714438 (Simulation time: 0 hr 25 min 51 sec) 
Heartbeat CPU 0 instructions: 190000000 cycles: 209921276 heartbeat IPC: 0.718395 cumulative IPC: 0.714719 (Simulation time: 0 hr 27 min 14 sec) 
*** Reached end of trace for Core: 0 Repeating trace: traces/spec2k17/srv_29.champsimtrace.xz
Heartbeat CPU 0 instructions: 200000003 cycles: 224014571 heartbeat IPC: 0.709557 cumulative IPC: 0.714373 (Simulation time: 0 hr 28 min 35 sec) 
Heartbeat CPU 0 instructions: 210000003 cycles: 237973536 heartbeat IPC: 0.716385 cumulative IPC: 0.714498 (Simulation time: 0 hr 29 min 55 sec) 
Heartbeat CPU 0 instructions: 220000000 cycles: 251904393 heartbeat IPC: 0.717831 cumulative IPC: 0.714694 (Simulation time: 0 hr 31 min 16 sec) 
*** Reached end of trace for Core: 0 Repeating trace: traces/spec2k17/srv_29.champsimtrace.xz
Heartbeat CPU 0 instructions: 230000002 cycles: 265989980 heartbeat IPC: 0.709946 cumulative IPC: 0.714428 (Simulation time: 0 hr 32 min 33 sec) 
Heartbeat CPU 0 instructions: 240000001 cycles: 279939519 heartbeat IPC: 0.716869 cumulative IPC: 0.714556 (Simulation time: 0 hr 33 min 55 sec) 
Heartbeat CPU 0 instructions: 250000002 cycles: 293878995 heartbeat IPC: 0.717387 cumulative IPC: 0.714697 (Simulation time: 0 hr 34 min 57 sec) 
Finished CPU 0 instructions: 200000002 cycles: 279838762 cumulative IPC: 0.714697 (Simulation time: 0 hr 34 min 57 sec) 

ChampSim completed all CPUs

Region of Interest Statistics

CPU 0 cumulative IPC: 0.714697 instructions: 200000002 cycles: 279838762
ITLB TOTAL     ACCESS:   32457196  HIT:   32347739  MISS:     109457  HIT %:    99.6628  MISS %:   0.337235   MPKI: 0.547285
ITLB LOAD TRANSLATION ACCESS:   32457196  HIT:   32347739  MISS:     109457  HIT %:    99.6628  MISS %:   0.337235   MPKI: 0.547285
ITLB PREFETCH  REQUESTED:          0  ISSUED:          0  USEFUL:          0  USELESS:          0
ITLB USEFUL LOAD PREFETCHES:          0 PREFETCH ISSUED TO LOWER LEVEL:          0  ACCURACY: -nan
ITLB TIMELY PREFETCHES:          0 LATE PREFETCHES: 0 DROPPED PREFETCHES: 0
ITLB PREFETCHES SAME FILL-ORIGIN LEVEL: 0 DIFFERENT FILL-ORIGIN LEVEL: 0
ITLB AVERAGE MISS LATENCY: 10.6409 cycles
ITLB RQ	ACCESS:   38257942	FORWARD:          0	MERGED:    5765068	TO_CACHE:   32492874

DTLB TOTAL     ACCESS:   40743231  HIT:   38934897  MISS:    1808334  HIT %:    95.5616  MISS %:    4.43837   MPKI: 9.04167
DTLB LOAD TRANSLATION ACCESS:   40743231  HIT:   38934897  MISS:    1808334  HIT %:    95.5616  MISS %:    4.43837   MPKI: 9.04167
DTLB PREFETCH  REQUESTED:          0  ISSUED:          0  USEFUL:          0  USELESS:          0
DTLB USEFUL LOAD PREFETCHES:          0 PREFETCH ISSUED TO LOWER LEVEL:          0  ACCURACY: -nan
DTLB TIMELY PREFETCHES:          0 LATE PREFETCHES: 0 DROPPED PREFETCHES: 0
DTLB PREFETCHES SAME FILL-ORIGIN LEVEL: 0 DIFFERENT FILL-ORIGIN LEVEL: 0
DTLB AVERAGE MISS LATENCY: 10.6222 cycles
DTLB RQ	ACCESS:   54737807	FORWARD:          0	MERGED:   13792574	TO_CACHE:   40945233

STLB TOTAL     ACCESS:    4831179  HIT:    4743735  MISS:      87444  HIT %:      98.19  MISS %:    1.80999   MPKI: 0.43722
STLB LOAD TRANSLATION ACCESS:    1917791  HIT:    1830965  MISS:      86826  HIT %:    95.4726  MISS %:     4.5274   MPKI: 0.43413
STLB TRANSLATION FROM L1D PREFETCHER ACCESS:    2913388  HIT:    2912770  MISS:        618  HIT %:    99.9788  MISS %:  0.0212124   MPKI: 0.00309
STLB PREFETCH  REQUESTED:          0  ISSUED:          0  USEFUL:        519  USELESS:        116
STLB USEFUL LOAD PREFETCHES:        519 PREFETCH ISSUED TO LOWER LEVEL:          0  ACCURACY: inf
STLB TIMELY PREFETCHES:        519 LATE PREFETCHES: 46 DROPPED PREFETCHES: 1031135
STLB PREFETCHES SAME FILL-ORIGIN LEVEL: 0 DIFFERENT FILL-ORIGIN LEVEL: 0
STLB AVERAGE MISS LATENCY: 5876.63 cycles
STLB RQ	ACCESS:   10539465	FORWARD:          0	MERGED:    4155056	TO_CACHE:    6384409

STLB Hit, L1D data hit: 0
STLB Hit, L2C data hit: 0
STLB Hit, LLC data hit: 0
STLB Hit, LLC data miss: 0
STLB STLB hints to L2: 0
L1D TOTAL     ACCESS:   59931941  HIT:   59382701  MISS:     549240  HIT %:    99.0836  MISS %:    0.91644   MPKI: 2.7462
L1D LOAD      ACCESS:   30671084  HIT:   30300120  MISS:     370964  HIT %:    98.7905  MISS %:    1.20949   MPKI: 1.85482
L1D RFO       ACCESS:   23408573  HIT:   23264396  MISS:     144177  HIT %:    99.3841  MISS %:   0.615915   MPKI: 0.720885
L1D PREFETCH  ACCESS:    5852284  HIT:    5818185  MISS:      34099  HIT %:    99.4173  MISS %:   0.582661   MPKI: 0.170495
AGUS PREFETCH L1 MISS: 0
L1D PREFETCH  REQUESTED:  144131783  ISSUED:  144033573  USEFUL:      23540  USELESS:      10608
L1D USEFUL LOAD PREFETCHES:      23540 PREFETCH ISSUED TO LOWER LEVEL:      49696  ACCURACY: 47.368
L1D TIMELY PREFETCHES:      23540 LATE PREFETCHES: 15578 DROPPED PREFETCHES: 2714296
L1D PREFETCHES SAME FILL-ORIGIN LEVEL: 49696 DIFFERENT FILL-ORIGIN LEVEL: 0
L1D AVERAGE MISS LATENCY: 4.43855e+06 cycles
L1D RQ	ACCESS:   49526610	FORWARD:          0	MERGED:   18615315	TO_CACHE:   30788224
L1D WQ	ACCESS:   24205930	FORWARD:     123093	MERGED:     256347	TO_CACHE:   23949583
L1D PQ	ACCESS:  135411899	FORWARD:          0	MERGED:  126790203	TO_CACHE:    8621674

L1D UNIQUE REGIONS ACCESSED: 0
L1D REGIONS CONFLICTS: 0
L1D Cross Page Prefetch Requests: 15301928
L1D Same Page Prefetch Requests: 558989293
L1D ROI Sum of L1D PQ occupancy: 195662544
L1D PREFETCHES PUSHED FROM L2C: 0
L1I TOTAL     ACCESS:   38059304  HIT:   37401840  MISS:     657464  HIT %:    98.2725  MISS %:    1.72747   MPKI: 3.28732
L1I LOAD      ACCESS:   38059304  HIT:   37401840  MISS:     657464  HIT %:    98.2725  MISS %:    1.72747   MPKI: 3.28732
L1I PREFETCH  REQUESTED:          0  ISSUED:          0  USEFUL:          0  USELESS:          0
L1I USEFUL LOAD PREFETCHES:          0 PREFETCH ISSUED TO LOWER LEVEL:          0  ACCURACY: -nan
L1I TIMELY PREFETCHES:          0 LATE PREFETCHES: 0 DROPPED PREFETCHES: 0
L1I PREFETCHES SAME FILL-ORIGIN LEVEL: 0 DIFFERENT FILL-ORIGIN LEVEL: 0
L1I AVERAGE MISS LATENCY: 16.7316 cycles
L1I RQ	ACCESS:   60428535	FORWARD:          0	MERGED:   22170593	TO_CACHE:   38257942

BTB TOTAL     ACCESS:   29558552  HIT:   27898491  MISS:    1660061  HIT %:    94.3838  MISS %:    5.61618   MPKI: 8.3003
BTB BRANCH_DIRECT_JUMP	ACCESS:    2284609  HIT:    2283159  MISS:       1450
BTB BRANCH_INDIRECT	ACCESS:   12524838  HIT:   11977687  MISS:     547151
BTB BRANCH_CONDITIONAL	ACCESS:    7193896  HIT:    7191833  MISS:       2063
BTB BRANCH_DIRECT_CALL	ACCESS:    3327862  HIT:    3324183  MISS:       3679
BTB BRANCH_INDIRECT_CALL	ACCESS:     449728  HIT:     256600  MISS:     193128
BTB BRANCH_RETURN	ACCESS:    3777619  HIT:    2865029  MISS:     912590
BTB BRANCH_OTHER ACCESS:          0  HIT:          0  MISS:          0

L2C TOTAL     ACCESS:    2827933  HIT:    2284036  MISS:     543897  HIT %:     80.767  MISS %:     19.233   MPKI: 2.71948
L2C LOAD      ACCESS:    1012724  HIT:     662075  MISS:     350649  HIT %:    65.3757  MISS %:    34.6243   MPKI: 1.75324
L2C DATA LOAD MPKI: 1.54668
L2C INSTRUCTION LOAD MPKI: 0.206565
L2C RFO       ACCESS:     144158  HIT:      10731  MISS:     133427  HIT %:    7.44392  MISS %:    92.5561   MPKI: 0.667135
L2C PREFETCH  ACCESS:      49696  HIT:      25016  MISS:      24680  HIT %:    50.3381  MISS %:    49.6619   MPKI: 0.1234
AGUS PREFETCH L1 MISS: 0
L2C DATA PREFETCH MPKI: 0.1234
L2C INSTRUCTION PREFETCH MPKI: 0
L2C WRITEBACK ACCESS:     191150  HIT:     184838  MISS:       6312  HIT %:    96.6979  MISS %:    3.30212   MPKI: 0.03156
L2C LOAD TRANSLATION ACCESS:     124295  HIT:      96853  MISS:      27442  HIT %:    77.9219  MISS %:    22.0781   MPKI: 0.13721
L2C TRANSLATION FROM L1D PREFETCHER ACCESS:    1305910  HIT:    1304523  MISS:       1387  HIT %:    99.8938  MISS %:   0.106209   MPKI: 0.006935
L2C PREFETCH  REQUESTED:          0  ISSUED:          0  USEFUL:       1123  USELESS:      25382
L2C USEFUL LOAD PREFETCHES:       1123 PREFETCH ISSUED TO LOWER LEVEL:      24680  ACCURACY: 4.55024
L2C TIMELY PREFETCHES:       1123 LATE PREFETCHES: 0 DROPPED PREFETCHES: 0
L2C PREFETCHES SAME FILL-ORIGIN LEVEL: 0 DIFFERENT FILL-ORIGIN LEVEL: 0
L2C AVERAGE MISS LATENCY: 115.935 cycles
L2C RQ	ACCESS:    2587213	FORWARD:          0	MERGED:          0	TO_CACHE:    2587087
L2C WQ	ACCESS:     191150	FORWARD:        126	MERGED:          0	TO_CACHE:     191150
L2C PQ	ACCESS:      49696	FORWARD:          0	MERGED:          0	TO_CACHE:      49696

L2C Instructions Evicting Data 36336
L2C Translations Evicting Data 24970
L2C Data Evicting Data 406788
L2C Instructions Evicting Instructions 2603
L2C Translations Evicting Instructions 2637
L2C Data Evicting Instructions 36077
L2C Instructions Evicting Translations 2374
L2C Translations Evicting Translations 1222
L2C Data Evicting Translations 24578
L2C Dense regions hint from L2: 0
PSCL5 TOTAL     ACCESS:    1118578  HIT:    1118578  MISS:          0  HIT %:        100  MISS %:          0   MPKI: 0
PSCL5 LOAD TRANSLATION ACCESS:      86780  HIT:      86780  MISS:          0  HIT %:        100  MISS %:          0   MPKI: 0
PSCL5 TRANSLATION FROM L1D PREFETCHER ACCESS:    1031798  HIT:    1031798  MISS:          0  HIT %:        100  MISS %:          0   MPKI: 0
PSCL5 PREFETCH  REQUESTED:          0  ISSUED:          0  USEFUL:          0  USELESS:          0
PSCL5 USEFUL LOAD PREFETCHES:          0 PREFETCH ISSUED TO LOWER LEVEL:          0  ACCURACY: -nan
PSCL5 TIMELY PREFETCHES:          0 LATE PREFETCHES: 0 DROPPED PREFETCHES: 0
PSCL5 PREFETCHES SAME FILL-ORIGIN LEVEL: 0 DIFFERENT FILL-ORIGIN LEVEL: 0

PSCL4 TOTAL     ACCESS:    1105627  HIT:    1105485  MISS:        142  HIT %:    99.9872  MISS %:  0.0128434   MPKI: 0.00071
PSCL4 LOAD TRANSLATION ACCESS:      85710  HIT:      85568  MISS:        142  HIT %:    99.8343  MISS %:   0.165675   MPKI: 0.00071
PSCL4 TRANSLATION FROM L1D PREFETCHER ACCESS:    1019917  HIT:    1019917  MISS:          0  HIT %:        100  MISS %:          0   MPKI: 0
PSCL4 PREFETCH  REQUESTED:          0  ISSUED:          0  USEFUL:          0  USELESS:          0
PSCL4 USEFUL LOAD PREFETCHES:          0 PREFETCH ISSUED TO LOWER LEVEL:          0  ACCURACY: -nan
PSCL4 TIMELY PREFETCHES:          0 LATE PREFETCHES: 0 DROPPED PREFETCHES: 0
PSCL4 PREFETCHES SAME FILL-ORIGIN LEVEL: 0 DIFFERENT FILL-ORIGIN LEVEL: 0

PSCL3 TOTAL     ACCESS:     964588  HIT:     964178  MISS:        410  HIT %:    99.9575  MISS %:  0.0425052   MPKI: 0.00205
PSCL3 LOAD TRANSLATION ACCESS:      86540  HIT:      86130  MISS:        410  HIT %:    99.5262  MISS %:   0.473769   MPKI: 0.00205
PSCL3 TRANSLATION FROM L1D PREFETCHER ACCESS:     878048  HIT:     878048  MISS:          0  HIT %:        100  MISS %:          0   MPKI: 0
PSCL3 PREFETCH  REQUESTED:          0  ISSUED:          0  USEFUL:          0  USELESS:          0
PSCL3 USEFUL LOAD PREFETCHES:          0 PREFETCH ISSUED TO LOWER LEVEL:          0  ACCURACY: -nan
PSCL3 TIMELY PREFETCHES:          0 LATE PREFETCHES: 0 DROPPED PREFETCHES: 0
PSCL3 PREFETCHES SAME FILL-ORIGIN LEVEL: 0 DIFFERENT FILL-ORIGIN LEVEL: 0

PSCL2 TOTAL     ACCESS:     723016  HIT:     685921  MISS:      37095  HIT %:    94.8694  MISS %:    5.13059   MPKI: 0.185475
PSCL2 LOAD TRANSLATION ACCESS:      86886  HIT:      49791  MISS:      37095  HIT %:    57.3061  MISS %:    42.6939   MPKI: 0.185475
PSCL2 TRANSLATION FROM L1D PREFETCHER ACCESS:     636130  HIT:     636130  MISS:          0  HIT %:        100  MISS %:          0   MPKI: 0
PSCL2 PREFETCH  REQUESTED:          0  ISSUED:          0  USEFUL:          0  USELESS:          0
PSCL2 USEFUL LOAD PREFETCHES:          0 PREFETCH ISSUED TO LOWER LEVEL:          0  ACCURACY: -nan
PSCL2 TIMELY PREFETCHES:          0 LATE PREFETCHES: 0 DROPPED PREFETCHES: 0
PSCL2 PREFETCHES SAME FILL-ORIGIN LEVEL: 0 DIFFERENT FILL-ORIGIN LEVEL: 0

LLC TOTAL     ACCESS:     708229  HIT:     407173  MISS:     301056  HIT %:    57.4917  MISS %:    42.5083   MPKI: 1.50528
LLC LOAD      ACCESS:     350649  HIT:     118417  MISS:     232232  HIT %:    33.7708  MISS %:    66.2292   MPKI: 1.16116
LLC RFO       ACCESS:     133427  HIT:      77332  MISS:      56095  HIT %:    57.9583  MISS %:    42.0417   MPKI: 0.280475
LLC PREFETCH  ACCESS:      24680  HIT:      16188  MISS:       8492  HIT %:    65.5916  MISS %:    34.4084   MPKI: 0.04246
AGUS PREFETCH L1 MISS: 0
LLC WRITEBACK ACCESS:     170644  HIT:     168929  MISS:       1715  HIT %:     98.995  MISS %:    1.00502   MPKI: 0.008575
LLC LOAD TRANSLATION ACCESS:      27442  HIT:      25296  MISS:       2146  HIT %:    92.1799  MISS %:    7.82013   MPKI: 0.01073
LLC TRANSLATION FROM L1D PREFETCHER ACCESS:       1387  HIT:       1011  MISS:        376  HIT %:    72.8911  MISS %:    27.1089   MPKI: 0.00188
LLC PREFETCH  REQUESTED:          0  ISSUED:          0  USEFUL:        682  USELESS:       9957
LLC USEFUL LOAD PREFETCHES:        682 PREFETCH ISSUED TO LOWER LEVEL:       8492  ACCURACY: 8.03109
LLC TIMELY PREFETCHES:        682 LATE PREFETCHES: 0 DROPPED PREFETCHES: 0
LLC PREFETCHES SAME FILL-ORIGIN LEVEL: 0 DIFFERENT FILL-ORIGIN LEVEL: 0
LLC AVERAGE MISS LATENCY: 155.877 cycles
LLC RQ	ACCESS:     512905	FORWARD:          0	MERGED:          0	TO_CACHE:     512905
LLC WQ	ACCESS:     170644	FORWARD:          0	MERGED:          0	TO_CACHE:     170644
LLC PQ	ACCESS:      24680	FORWARD:          0	MERGED:          0	TO_CACHE:      24680

LLC Dense regions hint to LLC: 0

RAW hits: 2388785
Loads Generated: 51915376
Loads sent to L1D: 49526610
Stores Generated: 24205900
Stores sent to L1D: 24205930
Major fault: 0 Minor fault: 6265
Allocated PAGES: 6265

DRAM Statistics
 CHANNEL 0
 RQ ROW_BUFFER_HIT:      68446  ROW_BUFFER_MISS:     230851
 DBUS_CONGESTED:        325
 WQ ROW_BUFFER_HIT:      14346  ROW_BUFFER_MISS:      56722  FULL:          0

 AVG_CONGESTED_CYCLE: 5
 All warmup complete: 2
Channel 0 Bank busy for read cycles: 0
Channel 0 Bank busy for write cycles: 0
Channel 0
Rank 0
0banks busy for read cycles: 244616318
0banks busy for write cycles: 35804
1banks busy for read cycles: 22925299
1banks busy for write cycles: 6307506
2banks busy for read cycles: 1594376
2banks busy for write cycles: 834591
3banks busy for read cycles: 679656
3banks busy for write cycles: 205450
4banks busy for read cycles: 488888
4banks busy for write cycles: 145837
5banks busy for read cycles: 375662
5banks busy for write cycles: 136886
6banks busy for read cycles: 343043
6banks busy for write cycles: 148936
7banks busy for read cycles: 262580
7banks busy for write cycles: 179621
8banks busy for read cycles: 271841
8banks busy for write cycles: 286469

CPU 0 Branch Prediction Accuracy: 99.7822% MPKI: 0.397295 Average ROB Occupancy at Mispredict: 20.2054
Branch types
NOT_BRANCH: 163510874 81.7554%
BRANCH_DIRECT_JUMP: 2284609 1.1423%
BRANCH_INDIRECT: 12524838 6.26242%
BRANCH_CONDITIONAL: 14124222 7.06211%
BRANCH_DIRECT_CALL: 3327862 1.66393%
BRANCH_INDIRECT_CALL: 449728 0.224864%
BRANCH_RETURN: 3777619 1.88881%
BRANCH_OTHER: 0 0%

DRAM PAGES: 1048576
Allocated PAGES: 6265
