
*** ChampSim Multicore Out-of-Order Simulator ***

Warmup Instructions: 50000000
Simulation Instructions: 200000000
Number of CPUs: 1
LLC sets: 2048
LLC ways: 16
Off-chip DRAM Size: 4096 MB Channels: 1 Width: 64-bit Data Rate: 6400 MT/s
CPU 0 runs traces/spec2k17/srv_17.champsimtrace.xz
.xz
BTB has LRU replacement policy
ITLB has LRU replacement policy
DTLB has LRU replacement policy
STLB has LRU replacement policy
L1I has LRU replacement policy
L1D has LRU replacement policy
Initialize SRRIP state for L2C
Initialize DRRIP state for LLC
Heartbeat CPU 0 instructions: 10000001 cycles: 2859958 heartbeat IPC: 3.49656 cumulative IPC: 3.49656 (Simulation time: 0 hr 1 min 4 sec) 
Heartbeat CPU 0 instructions: 20000001 cycles: 5716340 heartbeat IPC: 3.50093 cumulative IPC: 3.49874 (Simulation time: 0 hr 2 min 13 sec) 
Heartbeat CPU 0 instructions: 30000001 cycles: 8572462 heartbeat IPC: 3.50125 cumulative IPC: 3.49958 (Simulation time: 0 hr 3 min 20 sec) 
*** Reached end of trace for Core: 0 Repeating trace: traces/spec2k17/srv_17.champsimtrace.xz
Heartbeat CPU 0 instructions: 40000000 cycles: 11424289 heartbeat IPC: 3.50652 cumulative IPC: 3.50131 (Simulation time: 0 hr 4 min 25 sec) 
Heartbeat CPU 0 instructions: 50000003 cycles: 14276301 heartbeat IPC: 3.5063 cumulative IPC: 3.50231 (Simulation time: 0 hr 5 min 30 sec) 

Warmup complete CPU 0 instructions: 50000003 cycles: 14276301 (Simulation time: 0 hr 5 min 30 sec) 

Heartbeat CPU 0 instructions: 60000001 cycles: 47776830 heartbeat IPC: 0.298503 cumulative IPC: 0.298503 (Simulation time: 0 hr 7 min 1 sec) 
*** Reached end of trace for Core: 0 Repeating trace: traces/spec2k17/srv_17.champsimtrace.xz
Heartbeat CPU 0 instructions: 70000000 cycles: 81172151 heartbeat IPC: 0.299443 cumulative IPC: 0.298972 (Simulation time: 0 hr 8 min 33 sec) 
Heartbeat CPU 0 instructions: 80000001 cycles: 114555392 heartbeat IPC: 0.299552 cumulative IPC: 0.299165 (Simulation time: 0 hr 9 min 59 sec) 
Heartbeat CPU 0 instructions: 90000000 cycles: 147961685 heartbeat IPC: 0.299345 cumulative IPC: 0.29921 (Simulation time: 0 hr 11 min 25 sec) 
*** Reached end of trace for Core: 0 Repeating trace: traces/spec2k17/srv_17.champsimtrace.xz
Heartbeat CPU 0 instructions: 100000000 cycles: 181340064 heartbeat IPC: 0.299595 cumulative IPC: 0.299287 (Simulation time: 0 hr 12 min 46 sec) 
Heartbeat CPU 0 instructions: 110000000 cycles: 214695824 heartbeat IPC: 0.299798 cumulative IPC: 0.299372 (Simulation time: 0 hr 14 min 16 sec) 
Heartbeat CPU 0 instructions: 120000002 cycles: 248054744 heartbeat IPC: 0.29977 cumulative IPC: 0.299429 (Simulation time: 0 hr 15 min 39 sec) 
*** Reached end of trace for Core: 0 Repeating trace: traces/spec2k17/srv_17.champsimtrace.xz
Heartbeat CPU 0 instructions: 130000003 cycles: 281397054 heartbeat IPC: 0.299919 cumulative IPC: 0.29949 (Simulation time: 0 hr 17 min 0 sec) 
Heartbeat CPU 0 instructions: 140000003 cycles: 314741683 heartbeat IPC: 0.299898 cumulative IPC: 0.299535 (Simulation time: 0 hr 18 min 16 sec) 
Heartbeat CPU 0 instructions: 150000001 cycles: 348080365 heartbeat IPC: 0.299952 cumulative IPC: 0.299577 (Simulation time: 0 hr 19 min 40 sec) 
*** Reached end of trace for Core: 0 Repeating trace: traces/spec2k17/srv_17.champsimtrace.xz
Heartbeat CPU 0 instructions: 160000001 cycles: 381422686 heartbeat IPC: 0.299919 cumulative IPC: 0.299608 (Simulation time: 0 hr 21 min 4 sec) 
Heartbeat CPU 0 instructions: 170000000 cycles: 414764288 heartbeat IPC: 0.299926 cumulative IPC: 0.299634 (Simulation time: 0 hr 22 min 33 sec) 
Heartbeat CPU 0 instructions: 180000002 cycles: 448084585 heartbeat IPC: 0.300117 cumulative IPC: 0.299672 (Simulation time: 0 hr 24 min 1 sec) 
*** Reached end of trace for Core: 0 Repeating trace: traces/spec2k17/srv_17.champsimtrace.xz
Heartbeat CPU 0 instructions: 190000000 cycles: 481412707 heartbeat IPC: 0.300047 cumulative IPC: 0.299698 (Simulation time: 0 hr 25 min 27 sec) 
Heartbeat CPU 0 instructions: 200000002 cycles: 514739217 heartbeat IPC: 0.300061 cumulative IPC: 0.299722 (Simulation time: 0 hr 26 min 57 sec) 
Heartbeat CPU 0 instructions: 210000001 cycles: 548069985 heartbeat IPC: 0.300023 cumulative IPC: 0.299741 (Simulation time: 0 hr 28 min 22 sec) 
*** Reached end of trace for Core: 0 Repeating trace: traces/spec2k17/srv_17.champsimtrace.xz
Heartbeat CPU 0 instructions: 220000000 cycles: 581407592 heartbeat IPC: 0.299962 cumulative IPC: 0.299754 (Simulation time: 0 hr 29 min 49 sec) 
Heartbeat CPU 0 instructions: 230000000 cycles: 614735315 heartbeat IPC: 0.30005 cumulative IPC: 0.299771 (Simulation time: 0 hr 31 min 16 sec) 
Heartbeat CPU 0 instructions: 240000002 cycles: 648062017 heartbeat IPC: 0.30006 cumulative IPC: 0.299786 (Simulation time: 0 hr 32 min 38 sec) 
Heartbeat CPU 0 instructions: 250000002 cycles: 681408762 heartbeat IPC: 0.299879 cumulative IPC: 0.299791 (Simulation time: 0 hr 33 min 57 sec) 
Finished CPU 0 instructions: 200000003 cycles: 667132462 cumulative IPC: 0.299791 (Simulation time: 0 hr 33 min 57 sec) 

ChampSim completed all CPUs

Region of Interest Statistics

CPU 0 cumulative IPC: 0.299791 instructions: 200000003 cycles: 667132462
ITLB TOTAL     ACCESS:   35367785  HIT:   32951631  MISS:    2416154  HIT %:    93.1685  MISS %:    6.83151   MPKI: 12.0808
ITLB LOAD TRANSLATION ACCESS:   35367785  HIT:   32951631  MISS:    2416154  HIT %:    93.1685  MISS %:    6.83151   MPKI: 12.0808
ITLB PREFETCH  REQUESTED:          0  ISSUED:          0  USEFUL:          0  USELESS:          0
ITLB USEFUL LOAD PREFETCHES:          0 PREFETCH ISSUED TO LOWER LEVEL:          0  ACCURACY: -nan
ITLB TIMELY PREFETCHES:          0 LATE PREFETCHES: 0 DROPPED PREFETCHES: 0
ITLB PREFETCHES SAME FILL-ORIGIN LEVEL: 0 DIFFERENT FILL-ORIGIN LEVEL: 0
ITLB AVERAGE MISS LATENCY: 9.00451 cycles
ITLB RQ	ACCESS:   41914790	FORWARD:          0	MERGED:    5991575	TO_CACHE:   35923215

DTLB TOTAL     ACCESS:   47282039  HIT:   45316141  MISS:    1965898  HIT %:    95.8422  MISS %:    4.15781   MPKI: 9.82949
DTLB LOAD TRANSLATION ACCESS:   47282039  HIT:   45316141  MISS:    1965898  HIT %:    95.8422  MISS %:    4.15781   MPKI: 9.82949
DTLB PREFETCH  REQUESTED:          0  ISSUED:          0  USEFUL:          0  USELESS:          0
DTLB USEFUL LOAD PREFETCHES:          0 PREFETCH ISSUED TO LOWER LEVEL:          0  ACCURACY: -nan
DTLB TIMELY PREFETCHES:          0 LATE PREFETCHES: 0 DROPPED PREFETCHES: 0
DTLB PREFETCHES SAME FILL-ORIGIN LEVEL: 0 DIFFERENT FILL-ORIGIN LEVEL: 0
DTLB AVERAGE MISS LATENCY: 8.96712 cycles
DTLB RQ	ACCESS:   62473196	FORWARD:          0	MERGED:   15139990	TO_CACHE:   47333206

STLB TOTAL     ACCESS:    6383179  HIT:    6381599  MISS:       1580  HIT %:    99.9752  MISS %:  0.0247526   MPKI: 0.0079
STLB LOAD TRANSLATION ACCESS:    4382052  HIT:    4380539  MISS:       1513  HIT %:    99.9655  MISS %:  0.0345272   MPKI: 0.007565
STLB TRANSLATION FROM L1D PREFETCHER ACCESS:    2001127  HIT:    2001060  MISS:         67  HIT %:    99.9967  MISS %: 0.00334811   MPKI: 0.000335
STLB PREFETCH  REQUESTED:          0  ISSUED:          0  USEFUL:         58  USELESS:          9
STLB USEFUL LOAD PREFETCHES:         58 PREFETCH ISSUED TO LOWER LEVEL:          0  ACCURACY: inf
STLB TIMELY PREFETCHES:         58 LATE PREFETCHES: 0 DROPPED PREFETCHES: 753565
STLB PREFETCHES SAME FILL-ORIGIN LEVEL: 0 DIFFERENT FILL-ORIGIN LEVEL: 0
STLB AVERAGE MISS LATENCY: 32.2373 cycles
STLB RQ	ACCESS:    8647334	FORWARD:          0	MERGED:    1427235	TO_CACHE:    7220099

STLB Hit, L1D data hit: 0
STLB Hit, L2C data hit: 0
STLB Hit, LLC data hit: 0
STLB Hit, LLC data miss: 0
STLB STLB hints to L2: 0
L1D TOTAL     ACCESS:   63876590  HIT:   59243247  MISS:    4633343  HIT %:    92.7464  MISS %:    7.25359   MPKI: 23.1667
L1D LOAD      ACCESS:   34537332  HIT:   31376141  MISS:    3161191  HIT %:     90.847  MISS %:    9.15297   MPKI: 15.806
L1D RFO       ACCESS:   26188739  HIT:   25043934  MISS:    1144805  HIT %:    95.6286  MISS %:    4.37136   MPKI: 5.72402
L1D PREFETCH  ACCESS:    3150519  HIT:    2823172  MISS:     327347  HIT %:    89.6097  MISS %:    10.3903   MPKI: 1.63673
AGUS PREFETCH L1 MISS: 0
L1D PREFETCH  REQUESTED:   26749481  ISSUED:   26336834  USEFUL:     126064  USELESS:     201302
L1D USEFUL LOAD PREFETCHES:     126064 PREFETCH ISSUED TO LOWER LEVEL:     386953  ACCURACY: 32.5786
L1D TIMELY PREFETCHES:     126064 LATE PREFETCHES: 59606 DROPPED PREFETCHES: 977853
L1D PREFETCHES SAME FILL-ORIGIN LEVEL: 386953 DIFFERENT FILL-ORIGIN LEVEL: 0
L1D AVERAGE MISS LATENCY: 4.49062e+06 cycles
L1D RQ	ACCESS:   47144630	FORWARD:          0	MERGED:   12133336	TO_CACHE:   34661448
L1D WQ	ACCESS:   27961654	FORWARD:     359758	MERGED:     149906	TO_CACHE:   27811748
L1D PQ	ACCESS:   22071552	FORWARD:          0	MERGED:   17796358	TO_CACHE:    4265282

L1D UNIQUE REGIONS ACCESSED: 0
L1D REGIONS CONFLICTS: 0
L1D Cross Page Prefetch Requests: 4612773
L1D Same Page Prefetch Requests: 24619025
L1D ROI Sum of L1D PQ occupancy: 109907949
L1D PREFETCHES PUSHED FROM L2C: 0
L1I TOTAL     ACCESS:   40149080  HIT:   28018011  MISS:   12131069  HIT %:    69.7849  MISS %:    30.2151   MPKI: 60.6553
L1I LOAD      ACCESS:   40149080  HIT:   28018011  MISS:   12131069  HIT %:    69.7849  MISS %:    30.2151   MPKI: 60.6553
L1I PREFETCH  REQUESTED:          0  ISSUED:          0  USEFUL:          0  USELESS:          0
L1I USEFUL LOAD PREFETCHES:          0 PREFETCH ISSUED TO LOWER LEVEL:          0  ACCURACY: -nan
L1I TIMELY PREFETCHES:          0 LATE PREFETCHES: 0 DROPPED PREFETCHES: 0
L1I PREFETCHES SAME FILL-ORIGIN LEVEL: 0 DIFFERENT FILL-ORIGIN LEVEL: 0
L1I AVERAGE MISS LATENCY: 15.3958 cycles
L1I RQ	ACCESS:   58872320	FORWARD:          0	MERGED:   16957530	TO_CACHE:   41914790

BTB TOTAL     ACCESS:   30221974  HIT:   16757511  MISS:   13464463  HIT %:    55.4481  MISS %:    44.5519   MPKI: 67.3223
BTB BRANCH_DIRECT_JUMP	ACCESS:    1952658  HIT:    1081780  MISS:     870878
BTB BRANCH_INDIRECT	ACCESS:   12737368  HIT:    7604706  MISS:    5132662
BTB BRANCH_CONDITIONAL	ACCESS:    5645916  HIT:    4273172  MISS:    1372744
BTB BRANCH_DIRECT_CALL	ACCESS:    4153386  HIT:    1949552  MISS:    2203834
BTB BRANCH_INDIRECT_CALL	ACCESS:     789643  HIT:     387843  MISS:     401800
BTB BRANCH_RETURN	ACCESS:    4943003  HIT:    1460458  MISS:    3482545
BTB BRANCH_OTHER ACCESS:          0  HIT:          0  MISS:          0

L2C TOTAL     ACCESS:   19884892  HIT:   19094396  MISS:     790496  HIT %:    96.0246  MISS %:    3.97536   MPKI: 3.95248
L2C LOAD      ACCESS:   15231991  HIT:   14520777  MISS:     711214  HIT %:    95.3308  MISS %:    4.66921   MPKI: 3.55607
L2C DATA LOAD MPKI: 0.887015
L2C INSTRUCTION LOAD MPKI: 2.66905
L2C RFO       ACCESS:    1144805  HIT:    1138534  MISS:       6271  HIT %:    99.4522  MISS %:   0.547779   MPKI: 0.031355
L2C PREFETCH  ACCESS:     386934  HIT:     335205  MISS:      51729  HIT %:    86.6311  MISS %:    13.3689   MPKI: 0.258645
AGUS PREFETCH L1 MISS: 0
L2C DATA PREFETCH MPKI: 0.258645
L2C INSTRUCTION PREFETCH MPKI: 0
L2C WRITEBACK ACCESS:    2288043  HIT:    2278199  MISS:       9844  HIT %:    99.5698  MISS %:   0.430237   MPKI: 0.04922
L2C LOAD TRANSLATION ACCESS:       1514  HIT:        950  MISS:        564  HIT %:    62.7477  MISS %:    37.2523   MPKI: 0.00282
L2C TRANSLATION FROM L1D PREFETCHER ACCESS:     831605  HIT:     820731  MISS:      10874  HIT %:    98.6924  MISS %:    1.30759   MPKI: 0.05437
L2C PREFETCH  REQUESTED:          0  ISSUED:          0  USEFUL:       4189  USELESS:      58739
L2C USEFUL LOAD PREFETCHES:       4189 PREFETCH ISSUED TO LOWER LEVEL:      51729  ACCURACY: 8.09797
L2C TIMELY PREFETCHES:       4189 LATE PREFETCHES: 0 DROPPED PREFETCHES: 0
L2C PREFETCHES SAME FILL-ORIGIN LEVEL: 0 DIFFERENT FILL-ORIGIN LEVEL: 0
L2C AVERAGE MISS LATENCY: 30.0985 cycles
L2C RQ	ACCESS:   17210578	FORWARD:          0	MERGED:          0	TO_CACHE:   17209915
L2C WQ	ACCESS:    2288043	FORWARD:        682	MERGED:          0	TO_CACHE:    2288043
L2C PQ	ACCESS:     386953	FORWARD:          0	MERGED:          0	TO_CACHE:     386934

L2C Instructions Evicting Data 89158
L2C Translations Evicting Data 7098
L2C Data Evicting Data 145944
L2C Instructions Evicting Instructions 439338
L2C Translations Evicting Instructions 4243
L2C Data Evicting Instructions 83605
L2C Instructions Evicting Translations 5315
L2C Translations Evicting Translations 97
L2C Data Evicting Translations 5854
L2C Dense regions hint from L2: 0
PSCL5 TOTAL     ACCESS:     584796  HIT:     584796  MISS:          0  HIT %:        100  MISS %:          0   MPKI: 0
PSCL5 LOAD TRANSLATION ACCESS:       1513  HIT:       1513  MISS:          0  HIT %:        100  MISS %:          0   MPKI: 0
PSCL5 TRANSLATION FROM L1D PREFETCHER ACCESS:     583283  HIT:     583283  MISS:          0  HIT %:        100  MISS %:          0   MPKI: 0
PSCL5 PREFETCH  REQUESTED:          0  ISSUED:          0  USEFUL:          0  USELESS:          0
PSCL5 USEFUL LOAD PREFETCHES:          0 PREFETCH ISSUED TO LOWER LEVEL:          0  ACCURACY: -nan
PSCL5 TIMELY PREFETCHES:          0 LATE PREFETCHES: 0 DROPPED PREFETCHES: 0
PSCL5 PREFETCHES SAME FILL-ORIGIN LEVEL: 0 DIFFERENT FILL-ORIGIN LEVEL: 0

PSCL4 TOTAL     ACCESS:     550579  HIT:     550579  MISS:          0  HIT %:        100  MISS %:          0   MPKI: 0
PSCL4 LOAD TRANSLATION ACCESS:       1507  HIT:       1507  MISS:          0  HIT %:        100  MISS %:          0   MPKI: 0
PSCL4 TRANSLATION FROM L1D PREFETCHER ACCESS:     549072  HIT:     549072  MISS:          0  HIT %:        100  MISS %:          0   MPKI: 0
PSCL4 PREFETCH  REQUESTED:          0  ISSUED:          0  USEFUL:          0  USELESS:          0
PSCL4 USEFUL LOAD PREFETCHES:          0 PREFETCH ISSUED TO LOWER LEVEL:          0  ACCURACY: -nan
PSCL4 TIMELY PREFETCHES:          0 LATE PREFETCHES: 0 DROPPED PREFETCHES: 0
PSCL4 PREFETCHES SAME FILL-ORIGIN LEVEL: 0 DIFFERENT FILL-ORIGIN LEVEL: 0

PSCL3 TOTAL     ACCESS:     474430  HIT:     474430  MISS:          0  HIT %:        100  MISS %:          0   MPKI: 0
PSCL3 LOAD TRANSLATION ACCESS:       1507  HIT:       1507  MISS:          0  HIT %:        100  MISS %:          0   MPKI: 0
PSCL3 TRANSLATION FROM L1D PREFETCHER ACCESS:     472923  HIT:     472923  MISS:          0  HIT %:        100  MISS %:          0   MPKI: 0
PSCL3 PREFETCH  REQUESTED:          0  ISSUED:          0  USEFUL:          0  USELESS:          0
PSCL3 USEFUL LOAD PREFETCHES:          0 PREFETCH ISSUED TO LOWER LEVEL:          0  ACCURACY: -nan
PSCL3 TIMELY PREFETCHES:          0 LATE PREFETCHES: 0 DROPPED PREFETCHES: 0
PSCL3 PREFETCHES SAME FILL-ORIGIN LEVEL: 0 DIFFERENT FILL-ORIGIN LEVEL: 0

PSCL2 TOTAL     ACCESS:     175003  HIT:     175002  MISS:          1  HIT %:    99.9994  MISS %: 0.000571419   MPKI: 5e-06
PSCL2 LOAD TRANSLATION ACCESS:       1513  HIT:       1512  MISS:          1  HIT %:    99.9339  MISS %:  0.0660939   MPKI: 5e-06
PSCL2 TRANSLATION FROM L1D PREFETCHER ACCESS:     173490  HIT:     173490  MISS:          0  HIT %:        100  MISS %:          0   MPKI: 0
PSCL2 PREFETCH  REQUESTED:          0  ISSUED:          0  USEFUL:          0  USELESS:          0
PSCL2 USEFUL LOAD PREFETCHES:          0 PREFETCH ISSUED TO LOWER LEVEL:          0  ACCURACY: -nan
PSCL2 TIMELY PREFETCHES:          0 LATE PREFETCHES: 0 DROPPED PREFETCHES: 0
PSCL2 PREFETCHES SAME FILL-ORIGIN LEVEL: 0 DIFFERENT FILL-ORIGIN LEVEL: 0

LLC TOTAL     ACCESS:     800529  HIT:     798287  MISS:       2242  HIT %:    99.7199  MISS %:   0.280065   MPKI: 0.01121
LLC LOAD      ACCESS:     711214  HIT:     710642  MISS:        572  HIT %:    99.9196  MISS %:  0.0804259   MPKI: 0.00286
LLC RFO       ACCESS:       6271  HIT:       6271  MISS:          0  HIT %:        100  MISS %:          0   MPKI: 0
LLC PREFETCH  ACCESS:      51729  HIT:      50156  MISS:       1573  HIT %:    96.9592  MISS %:    3.04085   MPKI: 0.007865
AGUS PREFETCH L1 MISS: 0
LLC WRITEBACK ACCESS:      19877  HIT:      19877  MISS:          0  HIT %:        100  MISS %:          0   MPKI: 0
LLC LOAD TRANSLATION ACCESS:        564  HIT:        564  MISS:          0  HIT %:        100  MISS %:          0   MPKI: 0
LLC TRANSLATION FROM L1D PREFETCHER ACCESS:      10874  HIT:      10777  MISS:         97  HIT %:     99.108  MISS %:   0.892036   MPKI: 0.000485
LLC PREFETCH  REQUESTED:          0  ISSUED:          0  USEFUL:        737  USELESS:        308
LLC USEFUL LOAD PREFETCHES:        737 PREFETCH ISSUED TO LOWER LEVEL:       1573  ACCURACY: 46.8531
LLC TIMELY PREFETCHES:        737 LATE PREFETCHES: 0 DROPPED PREFETCHES: 0
LLC PREFETCHES SAME FILL-ORIGIN LEVEL: 0 DIFFERENT FILL-ORIGIN LEVEL: 0
LLC AVERAGE MISS LATENCY: 166.429 cycles
LLC RQ	ACCESS:     728923	FORWARD:          0	MERGED:          0	TO_CACHE:     728923
LLC WQ	ACCESS:      19877	FORWARD:          0	MERGED:          0	TO_CACHE:      19877
LLC PQ	ACCESS:      51729	FORWARD:          0	MERGED:          0	TO_CACHE:      51729

LLC Dense regions hint to LLC: 0

RAW hits: 1518397
Loads Generated: 48663027
Loads sent to L1D: 47144630
Stores Generated: 27961638
Stores sent to L1D: 27961654
Major fault: 0 Minor fault: 1253
Allocated PAGES: 1253

DRAM Statistics
 CHANNEL 0
 RQ ROW_BUFFER_HIT:        117  ROW_BUFFER_MISS:       2125
 DBUS_CONGESTED:          0
 WQ ROW_BUFFER_HIT:          0  ROW_BUFFER_MISS:          0  FULL:          0

 AVG_CONGESTED_CYCLE: -
 All warmup complete: 2
Channel 0 Bank busy for read cycles: 0
Channel 0 Bank busy for write cycles: 0
Channel 0
Rank 0
0banks busy for read cycles: 666880837
0banks busy for write cycles: 0
1banks busy for read cycles: 197709
1banks busy for write cycles: 0
2banks busy for read cycles: 40765
2banks busy for write cycles: 0
3banks busy for read cycles: 9539
3banks busy for write cycles: 0
4banks busy for read cycles: 2142
4banks busy for write cycles: 0
5banks busy for read cycles: 769
5banks busy for write cycles: 0
6banks busy for read cycles: 624
6banks busy for write cycles: 0
7banks busy for read cycles: 37
7banks busy for write cycles: 0
8banks busy for read cycles: 41
8banks busy for write cycles: 0

CPU 0 Branch Prediction Accuracy: 99.9103% MPKI: 0.159245 Average ROB Occupancy at Mispredict: 32.2127
Branch types
NOT_BRANCH: 164491846 82.2459%
BRANCH_DIRECT_JUMP: 1952658 0.976329%
BRANCH_INDIRECT: 12737368 6.36868%
BRANCH_CONDITIONAL: 10931944 5.46597%
BRANCH_DIRECT_CALL: 4153386 2.07669%
BRANCH_INDIRECT_CALL: 789643 0.394821%
BRANCH_RETURN: 4943003 2.4715%
BRANCH_OTHER: 0 0%

DRAM PAGES: 1048576
Allocated PAGES: 1253
