
*** ChampSim Multicore Out-of-Order Simulator ***

Warmup Instructions: 50000000
Simulation Instructions: 200000000
Number of CPUs: 1
LLC sets: 2048
LLC ways: 16
Off-chip DRAM Size: 4096 MB Channels: 1 Width: 64-bit Data Rate: 6400 MT/s
CPU 0 runs traces/spec2k17/srv_43.champsimtrace.xz
.xz
BTB has LRU replacement policy
ITLB has LRU replacement policy
DTLB has LRU replacement policy
STLB has LRU replacement policy
L1I has LRU replacement policy
L1D has LRU replacement policy
Initialize SRRIP state for L2C
Initialize DRRIP state for LLC
Heartbeat CPU 0 instructions: 10000003 cycles: 2937997 heartbeat IPC: 3.40368 cumulative IPC: 3.40368 (Simulation time: 0 hr 1 min 3 sec) 
Heartbeat CPU 0 instructions: 20000000 cycles: 5869338 heartbeat IPC: 3.41141 cumulative IPC: 3.40754 (Simulation time: 0 hr 2 min 7 sec) 
Heartbeat CPU 0 instructions: 30000001 cycles: 8800817 heartbeat IPC: 3.41125 cumulative IPC: 3.40877 (Simulation time: 0 hr 3 min 11 sec) 
*** Reached end of trace for Core: 0 Repeating trace: traces/spec2k17/srv_43.champsimtrace.xz
Heartbeat CPU 0 instructions: 40000001 cycles: 11730491 heartbeat IPC: 3.41335 cumulative IPC: 3.40992 (Simulation time: 0 hr 4 min 12 sec) 
Heartbeat CPU 0 instructions: 50000003 cycles: 14661065 heartbeat IPC: 3.4123 cumulative IPC: 3.41039 (Simulation time: 0 hr 5 min 13 sec) 

Warmup complete CPU 0 instructions: 50000003 cycles: 14661065 (Simulation time: 0 hr 5 min 13 sec) 

Heartbeat CPU 0 instructions: 60000000 cycles: 44437199 heartbeat IPC: 0.335839 cumulative IPC: 0.335839 (Simulation time: 0 hr 6 min 38 sec) 
*** Reached end of trace for Core: 0 Repeating trace: traces/spec2k17/srv_43.champsimtrace.xz
Heartbeat CPU 0 instructions: 70000000 cycles: 74116616 heartbeat IPC: 0.336934 cumulative IPC: 0.336386 (Simulation time: 0 hr 8 min 1 sec) 
Heartbeat CPU 0 instructions: 80000003 cycles: 103935956 heartbeat IPC: 0.335353 cumulative IPC: 0.336041 (Simulation time: 0 hr 9 min 24 sec) 
Heartbeat CPU 0 instructions: 90000003 cycles: 133722097 heartbeat IPC: 0.335727 cumulative IPC: 0.335962 (Simulation time: 0 hr 10 min 50 sec) 
*** Reached end of trace for Core: 0 Repeating trace: traces/spec2k17/srv_43.champsimtrace.xz
Heartbeat CPU 0 instructions: 100000003 cycles: 163367649 heartbeat IPC: 0.337319 cumulative IPC: 0.336233 (Simulation time: 0 hr 12 min 12 sec) 
Heartbeat CPU 0 instructions: 110000000 cycles: 193060973 heartbeat IPC: 0.336776 cumulative IPC: 0.336323 (Simulation time: 0 hr 13 min 31 sec) 
Heartbeat CPU 0 instructions: 120000003 cycles: 222842740 heartbeat IPC: 0.335776 cumulative IPC: 0.336245 (Simulation time: 0 hr 14 min 48 sec) 
*** Reached end of trace for Core: 0 Repeating trace: traces/spec2k17/srv_43.champsimtrace.xz
Heartbeat CPU 0 instructions: 130000002 cycles: 252469445 heartbeat IPC: 0.337533 cumulative IPC: 0.336405 (Simulation time: 0 hr 16 min 15 sec) 
Heartbeat CPU 0 instructions: 140000002 cycles: 282219280 heartbeat IPC: 0.336136 cumulative IPC: 0.336375 (Simulation time: 0 hr 17 min 41 sec) 
Heartbeat CPU 0 instructions: 150000003 cycles: 311809580 heartbeat IPC: 0.337949 cumulative IPC: 0.336532 (Simulation time: 0 hr 19 min 7 sec) 
*** Reached end of trace for Core: 0 Repeating trace: traces/spec2k17/srv_43.champsimtrace.xz
Heartbeat CPU 0 instructions: 160000000 cycles: 341515375 heartbeat IPC: 0.336635 cumulative IPC: 0.336541 (Simulation time: 0 hr 20 min 35 sec) 
Heartbeat CPU 0 instructions: 170000000 cycles: 371218921 heartbeat IPC: 0.33666 cumulative IPC: 0.336551 (Simulation time: 0 hr 21 min 59 sec) 
Heartbeat CPU 0 instructions: 180000000 cycles: 400900801 heartbeat IPC: 0.336906 cumulative IPC: 0.336579 (Simulation time: 0 hr 23 min 18 sec) 
*** Reached end of trace for Core: 0 Repeating trace: traces/spec2k17/srv_43.champsimtrace.xz
Heartbeat CPU 0 instructions: 190000002 cycles: 430567587 heartbeat IPC: 0.337077 cumulative IPC: 0.336614 (Simulation time: 0 hr 24 min 44 sec) 
Heartbeat CPU 0 instructions: 200000001 cycles: 460238934 heartbeat IPC: 0.337025 cumulative IPC: 0.336641 (Simulation time: 0 hr 26 min 12 sec) 
Heartbeat CPU 0 instructions: 210000002 cycles: 489906217 heartbeat IPC: 0.337072 cumulative IPC: 0.336668 (Simulation time: 0 hr 27 min 32 sec) 
*** Reached end of trace for Core: 0 Repeating trace: traces/spec2k17/srv_43.champsimtrace.xz
Heartbeat CPU 0 instructions: 220000000 cycles: 519601524 heartbeat IPC: 0.336753 cumulative IPC: 0.336673 (Simulation time: 0 hr 28 min 57 sec) 
Heartbeat CPU 0 instructions: 230000003 cycles: 549290303 heartbeat IPC: 0.336828 cumulative IPC: 0.336682 (Simulation time: 0 hr 30 min 19 sec) 
Heartbeat CPU 0 instructions: 240000000 cycles: 578893706 heartbeat IPC: 0.337799 cumulative IPC: 0.336741 (Simulation time: 0 hr 31 min 41 sec) 
*** Reached end of trace for Core: 0 Repeating trace: traces/spec2k17/srv_43.champsimtrace.xz
Heartbeat CPU 0 instructions: 250000002 cycles: 608570688 heartbeat IPC: 0.336962 cumulative IPC: 0.336752 (Simulation time: 0 hr 32 min 54 sec) 
Finished CPU 0 instructions: 200000001 cycles: 593909625 cumulative IPC: 0.336752 (Simulation time: 0 hr 32 min 54 sec) 

ChampSim completed all CPUs

Region of Interest Statistics

CPU 0 cumulative IPC: 0.336752 instructions: 200000001 cycles: 593909625
ITLB TOTAL     ACCESS:   34763855  HIT:   33118254  MISS:    1645601  HIT %:    95.2663  MISS %:    4.73366   MPKI: 8.228
ITLB LOAD TRANSLATION ACCESS:   34763855  HIT:   33118254  MISS:    1645601  HIT %:    95.2663  MISS %:    4.73366   MPKI: 8.228
ITLB PREFETCH  REQUESTED:          0  ISSUED:          0  USEFUL:          0  USELESS:          0
ITLB USEFUL LOAD PREFETCHES:          0 PREFETCH ISSUED TO LOWER LEVEL:          0  ACCURACY: -nan
ITLB TIMELY PREFETCHES:          0 LATE PREFETCHES: 0 DROPPED PREFETCHES: 0
ITLB PREFETCHES SAME FILL-ORIGIN LEVEL: 0 DIFFERENT FILL-ORIGIN LEVEL: 0
ITLB AVERAGE MISS LATENCY: 9.65346 cycles
ITLB RQ	ACCESS:   40677817	FORWARD:          0	MERGED:    5423238	TO_CACHE:   35254579

DTLB TOTAL     ACCESS:   45838968  HIT:   44026854  MISS:    1812114  HIT %:    96.0468  MISS %:    3.95322   MPKI: 9.06057
DTLB LOAD TRANSLATION ACCESS:   45838968  HIT:   44026854  MISS:    1812114  HIT %:    96.0468  MISS %:    3.95322   MPKI: 9.06057
DTLB PREFETCH  REQUESTED:          0  ISSUED:          0  USEFUL:          0  USELESS:          0
DTLB USEFUL LOAD PREFETCHES:          0 PREFETCH ISSUED TO LOWER LEVEL:          0  ACCURACY: -nan
DTLB TIMELY PREFETCHES:          0 LATE PREFETCHES: 0 DROPPED PREFETCHES: 0
DTLB PREFETCHES SAME FILL-ORIGIN LEVEL: 0 DIFFERENT FILL-ORIGIN LEVEL: 0
DTLB AVERAGE MISS LATENCY: 11.9138 cycles
DTLB RQ	ACCESS:   61025031	FORWARD:          0	MERGED:   15069033	TO_CACHE:   45955998

STLB TOTAL     ACCESS:    4028156  HIT:    3907881  MISS:     120275  HIT %:    97.0141  MISS %:    2.98586   MPKI: 0.601375
STLB LOAD TRANSLATION ACCESS:    3457715  HIT:    3338903  MISS:     118812  HIT %:    96.5639  MISS %:    3.43614   MPKI: 0.59406
STLB TRANSLATION FROM L1D PREFETCHER ACCESS:     570441  HIT:     568978  MISS:       1463  HIT %:    99.7435  MISS %:   0.256468   MPKI: 0.007315
STLB PREFETCH  REQUESTED:          0  ISSUED:          0  USEFUL:       1287  USELESS:        179
STLB USEFUL LOAD PREFETCHES:       1287 PREFETCH ISSUED TO LOWER LEVEL:          0  ACCURACY: inf
STLB TIMELY PREFETCHES:       1287 LATE PREFETCHES: 63 DROPPED PREFETCHES: 410893
STLB PREFETCHES SAME FILL-ORIGIN LEVEL: 0 DIFFERENT FILL-ORIGIN LEVEL: 0
STLB AVERAGE MISS LATENCY: 53.5083 cycles
STLB RQ	ACCESS:    4941011	FORWARD:          0	MERGED:     404258	TO_CACHE:    4536753

STLB Hit, L1D data hit: 0
STLB Hit, L2C data hit: 0
STLB Hit, LLC data hit: 0
STLB Hit, LLC data miss: 0
STLB STLB hints to L2: 0
L1D TOTAL     ACCESS:   59779427  HIT:   55236429  MISS:    4542998  HIT %:    92.4004  MISS %:     7.5996   MPKI: 22.715
L1D LOAD      ACCESS:   35346179  HIT:   32165170  MISS:    3181009  HIT %:    91.0004  MISS %:    8.99958   MPKI: 15.905
L1D RFO       ACCESS:   23592957  HIT:   22311501  MISS:    1281456  HIT %:    94.5685  MISS %:    5.43152   MPKI: 6.40728
L1D PREFETCH  ACCESS:     840291  HIT:     759758  MISS:      80533  HIT %:    90.4161  MISS %:    9.58394   MPKI: 0.402665
AGUS PREFETCH L1 MISS: 0
L1D PREFETCH  REQUESTED:   16606845  ISSUED:   10291849  USEFUL:      32834  USELESS:      47719
L1D USEFUL LOAD PREFETCHES:      32834 PREFETCH ISSUED TO LOWER LEVEL:      89862  ACCURACY: 36.5382
L1D TIMELY PREFETCHES:      32834 LATE PREFETCHES: 9323 DROPPED PREFETCHES: 599429
L1D PREFETCHES SAME FILL-ORIGIN LEVEL: 89862 DIFFERENT FILL-ORIGIN LEVEL: 0
L1D AVERAGE MISS LATENCY: 636981 cycles
L1D RQ	ACCESS:   46594338	FORWARD:          0	MERGED:   10890058	TO_CACHE:   35491124
L1D WQ	ACCESS:   25869328	FORWARD:     252580	MERGED:     335421	TO_CACHE:   25533907
L1D PQ	ACCESS:    8808553	FORWARD:          0	MERGED:    7285833	TO_CACHE:    1483296

L1D UNIQUE REGIONS ACCESSED: 0
L1D REGIONS CONFLICTS: 0
L1D Cross Page Prefetch Requests: 4295786
L1D Same Page Prefetch Requests: 8203255
L1D ROI Sum of L1D PQ occupancy: 74422836
L1D PREFETCHES PUSHED FROM L2C: 0
L1I TOTAL     ACCESS:   39392568  HIT:   30954120  MISS:    8438448  HIT %:    78.5786  MISS %:    21.4214   MPKI: 42.1922
L1I LOAD      ACCESS:   39392568  HIT:   30954120  MISS:    8438448  HIT %:    78.5786  MISS %:    21.4214   MPKI: 42.1922
L1I PREFETCH  REQUESTED:          0  ISSUED:          0  USEFUL:          0  USELESS:          0
L1I USEFUL LOAD PREFETCHES:          0 PREFETCH ISSUED TO LOWER LEVEL:          0  ACCURACY: -nan
L1I TIMELY PREFETCHES:          0 LATE PREFETCHES: 0 DROPPED PREFETCHES: 0
L1I PREFETCHES SAME FILL-ORIGIN LEVEL: 0 DIFFERENT FILL-ORIGIN LEVEL: 0
L1I AVERAGE MISS LATENCY: 19.3189 cycles
L1I RQ	ACCESS:   60002059	FORWARD:          0	MERGED:   19324242	TO_CACHE:   40677817

BTB TOTAL     ACCESS:   29897603  HIT:   19967868  MISS:    9929735  HIT %:    66.7875  MISS %:    33.2125   MPKI: 49.6487
BTB BRANCH_DIRECT_JUMP	ACCESS:    2615827  HIT:    1794124  MISS:     821703
BTB BRANCH_INDIRECT	ACCESS:   12513602  HIT:    8361778  MISS:    4151824
BTB BRANCH_CONDITIONAL	ACCESS:    6697250  HIT:    5806240  MISS:     891010
BTB BRANCH_DIRECT_CALL	ACCESS:    3083799  HIT:    1615768  MISS:    1468031
BTB BRANCH_INDIRECT_CALL	ACCESS:     951675  HIT:     669300  MISS:     282375
BTB BRANCH_RETURN	ACCESS:    4035450  HIT:    1720658  MISS:    2314792
BTB BRANCH_OTHER ACCESS:          0  HIT:          0  MISS:          0

L2C TOTAL     ACCESS:   15792713  HIT:   12557046  MISS:    3235667  HIT %:    79.5116  MISS %:    20.4884   MPKI: 16.1783
L2C LOAD      ACCESS:   11610117  HIT:    9171244  MISS:    2438873  HIT %:    78.9936  MISS %:    21.0064   MPKI: 12.1944
L2C DATA LOAD MPKI: 4.88253
L2C INSTRUCTION LOAD MPKI: 7.31183
L2C RFO       ACCESS:    1281450  HIT:     744271  MISS:     537179  HIT %:    58.0804  MISS %:    41.9196   MPKI: 2.68589
L2C PREFETCH  ACCESS:      89862  HIT:      55082  MISS:      34780  HIT %:    61.2962  MISS %:    38.7038   MPKI: 0.1739
AGUS PREFETCH L1 MISS: 0
L2C DATA PREFETCH MPKI: 0.1739
L2C INSTRUCTION PREFETCH MPKI: 0
L2C WRITEBACK ACCESS:    2051805  HIT:    1945387  MISS:     106418  HIT %:    94.8134  MISS %:    5.18656   MPKI: 0.53209
L2C LOAD TRANSLATION ACCESS:     207533  HIT:     122911  MISS:      84622  HIT %:    59.2248  MISS %:    40.7752   MPKI: 0.42311
L2C TRANSLATION FROM L1D PREFETCHER ACCESS:     551946  HIT:     518151  MISS:      33795  HIT %:    93.8771  MISS %:    6.12288   MPKI: 0.168975
L2C PREFETCH  REQUESTED:          0  ISSUED:          0  USEFUL:      15020  USELESS:      53601
L2C USEFUL LOAD PREFETCHES:      15020 PREFETCH ISSUED TO LOWER LEVEL:      34780  ACCURACY: 43.1857
L2C TIMELY PREFETCHES:      15020 LATE PREFETCHES: 0 DROPPED PREFETCHES: 0
L2C PREFETCHES SAME FILL-ORIGIN LEVEL: 0 DIFFERENT FILL-ORIGIN LEVEL: 0
L2C AVERAGE MISS LATENCY: 33.0568 cycles
L2C RQ	ACCESS:   13651063	FORWARD:          0	MERGED:          0	TO_CACHE:   13651046
L2C WQ	ACCESS:    2051805	FORWARD:         17	MERGED:          0	TO_CACHE:    2051805
L2C PQ	ACCESS:      89862	FORWARD:          0	MERGED:          0	TO_CACHE:      89862

L2C Instructions Evicting Data 609299
L2C Translations Evicting Data 77662
L2C Data Evicting Data 907122
L2C Instructions Evicting Instructions 817228
L2C Translations Evicting Instructions 35242
L2C Data Evicting Instructions 568418
L2C Instructions Evicting Translations 35840
L2C Translations Evicting Translations 5513
L2C Data Evicting Translations 72925
L2C Dense regions hint from L2: 0
PSCL5 TOTAL     ACCESS:     469857  HIT:     469857  MISS:          0  HIT %:        100  MISS %:          0   MPKI: 0
PSCL5 LOAD TRANSLATION ACCESS:     118749  HIT:     118749  MISS:          0  HIT %:        100  MISS %:          0   MPKI: 0
PSCL5 TRANSLATION FROM L1D PREFETCHER ACCESS:     351108  HIT:     351108  MISS:          0  HIT %:        100  MISS %:          0   MPKI: 0
PSCL5 PREFETCH  REQUESTED:          0  ISSUED:          0  USEFUL:          0  USELESS:          0
PSCL5 USEFUL LOAD PREFETCHES:          0 PREFETCH ISSUED TO LOWER LEVEL:          0  ACCURACY: -nan
PSCL5 TIMELY PREFETCHES:          0 LATE PREFETCHES: 0 DROPPED PREFETCHES: 0
PSCL5 PREFETCHES SAME FILL-ORIGIN LEVEL: 0 DIFFERENT FILL-ORIGIN LEVEL: 0

PSCL4 TOTAL     ACCESS:     338730  HIT:     335421  MISS:       3309  HIT %:    99.0231  MISS %:   0.976884   MPKI: 0.016545
PSCL4 LOAD TRANSLATION ACCESS:     112757  HIT:     109448  MISS:       3309  HIT %:    97.0654  MISS %:    2.93463   MPKI: 0.016545
PSCL4 TRANSLATION FROM L1D PREFETCHER ACCESS:     225973  HIT:     225973  MISS:          0  HIT %:        100  MISS %:          0   MPKI: 0
PSCL4 PREFETCH  REQUESTED:          0  ISSUED:          0  USEFUL:          0  USELESS:          0
PSCL4 USEFUL LOAD PREFETCHES:          0 PREFETCH ISSUED TO LOWER LEVEL:          0  ACCURACY: -nan
PSCL4 TIMELY PREFETCHES:          0 LATE PREFETCHES: 0 DROPPED PREFETCHES: 0
PSCL4 PREFETCHES SAME FILL-ORIGIN LEVEL: 0 DIFFERENT FILL-ORIGIN LEVEL: 0

PSCL3 TOTAL     ACCESS:     217906  HIT:     194136  MISS:      23770  HIT %:    89.0916  MISS %:    10.9084   MPKI: 0.11885
PSCL3 LOAD TRANSLATION ACCESS:     112769  HIT:      88999  MISS:      23770  HIT %:    78.9215  MISS %:    21.0785   MPKI: 0.11885
PSCL3 TRANSLATION FROM L1D PREFETCHER ACCESS:     105137  HIT:     105137  MISS:          0  HIT %:        100  MISS %:          0   MPKI: 0
PSCL3 PREFETCH  REQUESTED:          0  ISSUED:          0  USEFUL:          0  USELESS:          0
PSCL3 USEFUL LOAD PREFETCHES:          0 PREFETCH ISSUED TO LOWER LEVEL:          0  ACCURACY: -nan
PSCL3 TIMELY PREFETCHES:          0 LATE PREFETCHES: 0 DROPPED PREFETCHES: 0
PSCL3 PREFETCHES SAME FILL-ORIGIN LEVEL: 0 DIFFERENT FILL-ORIGIN LEVEL: 0

PSCL2 TOTAL     ACCESS:     129846  HIT:      66120  MISS:      63726  HIT %:    50.9219  MISS %:    49.0781   MPKI: 0.31863
PSCL2 LOAD TRANSLATION ACCESS:     119867  HIT:      56141  MISS:      63726  HIT %:    46.8361  MISS %:    53.1639   MPKI: 0.31863
PSCL2 TRANSLATION FROM L1D PREFETCHER ACCESS:       9979  HIT:       9979  MISS:          0  HIT %:        100  MISS %:          0   MPKI: 0
PSCL2 PREFETCH  REQUESTED:          0  ISSUED:          0  USEFUL:          0  USELESS:          0
PSCL2 USEFUL LOAD PREFETCHES:          0 PREFETCH ISSUED TO LOWER LEVEL:          0  ACCURACY: -nan
PSCL2 TIMELY PREFETCHES:          0 LATE PREFETCHES: 0 DROPPED PREFETCHES: 0
PSCL2 PREFETCHES SAME FILL-ORIGIN LEVEL: 0 DIFFERENT FILL-ORIGIN LEVEL: 0

LLC TOTAL     ACCESS:    3912410  HIT:    3830882  MISS:      81528  HIT %:    97.9162  MISS %:    2.08383   MPKI: 0.40764
LLC LOAD      ACCESS:    2438872  HIT:    2380811  MISS:      58061  HIT %:    97.6194  MISS %:    2.38065   MPKI: 0.290305
LLC RFO       ACCESS:     537179  HIT:     518337  MISS:      18842  HIT %:    96.4924  MISS %:    3.50758   MPKI: 0.09421
LLC PREFETCH  ACCESS:      34780  HIT:      33720  MISS:       1060  HIT %:    96.9523  MISS %:    3.04773   MPKI: 0.0053
AGUS PREFETCH L1 MISS: 0
LLC WRITEBACK ACCESS:     783162  HIT:     783040  MISS:        122  HIT %:    99.9844  MISS %:  0.0155779   MPKI: 0.00061
LLC LOAD TRANSLATION ACCESS:      84622  HIT:      81817  MISS:       2805  HIT %:    96.6853  MISS %:    3.31474   MPKI: 0.014025
LLC TRANSLATION FROM L1D PREFETCHER ACCESS:      33795  HIT:      33157  MISS:        638  HIT %:    98.1121  MISS %:    1.88785   MPKI: 0.00319
LLC PREFETCH  REQUESTED:          0  ISSUED:          0  USEFUL:        468  USELESS:       1425
LLC USEFUL LOAD PREFETCHES:        468 PREFETCH ISSUED TO LOWER LEVEL:       1060  ACCURACY: 44.1509
LLC TIMELY PREFETCHES:        468 LATE PREFETCHES: 0 DROPPED PREFETCHES: 0
LLC PREFETCHES SAME FILL-ORIGIN LEVEL: 0 DIFFERENT FILL-ORIGIN LEVEL: 0
LLC AVERAGE MISS LATENCY: 160.471 cycles
LLC RQ	ACCESS:    3094469	FORWARD:          0	MERGED:          0	TO_CACHE:    3094468
LLC WQ	ACCESS:     783162	FORWARD:          1	MERGED:          0	TO_CACHE:     783162
LLC PQ	ACCESS:      34780	FORWARD:          0	MERGED:          0	TO_CACHE:      34780

LLC Dense regions hint to LLC: 0

RAW hits: 3189176
Loads Generated: 49783514
Loads sent to L1D: 46594338
Stores Generated: 25869307
Stores sent to L1D: 25869328
Major fault: 0 Minor fault: 4436
Allocated PAGES: 4436

DRAM Statistics
 CHANNEL 0
 RQ ROW_BUFFER_HIT:      16525  ROW_BUFFER_MISS:      64869
 DBUS_CONGESTED:         69
 WQ ROW_BUFFER_HIT:       4425  ROW_BUFFER_MISS:      37004  FULL:          0

 AVG_CONGESTED_CYCLE: 5
 All warmup complete: 2
Channel 0 Bank busy for read cycles: 0
Channel 0 Bank busy for write cycles: 0
Channel 0
Rank 0
0banks busy for read cycles: 580363464
0banks busy for write cycles: 26430
1banks busy for read cycles: 7256227
1banks busy for write cycles: 3929320
2banks busy for read cycles: 846390
2banks busy for write cycles: 716407
3banks busy for read cycles: 183659
3banks busy for write cycles: 180852
4banks busy for read cycles: 46383
4banks busy for write cycles: 44521
5banks busy for read cycles: 31185
5banks busy for write cycles: 18275
6banks busy for read cycles: 31263
6banks busy for write cycles: 14785
7banks busy for read cycles: 29207
7banks busy for write cycles: 31102
8banks busy for read cycles: 41249
8banks busy for write cycles: 118907

CPU 0 Branch Prediction Accuracy: 99.8237% MPKI: 0.313695 Average ROB Occupancy at Mispredict: 38.9921
Branch types
NOT_BRANCH: 164410969 82.2055%
BRANCH_DIRECT_JUMP: 2615827 1.30791%
BRANCH_INDIRECT: 12513602 6.2568%
BRANCH_CONDITIONAL: 12388308 6.19415%
BRANCH_DIRECT_CALL: 3083799 1.5419%
BRANCH_INDIRECT_CALL: 951675 0.475837%
BRANCH_RETURN: 4035450 2.01772%
BRANCH_OTHER: 0 0%

DRAM PAGES: 1048576
Allocated PAGES: 4436
