
*** ChampSim Multicore Out-of-Order Simulator ***

Warmup Instructions: 50000000
Simulation Instructions: 200000000
Number of CPUs: 1
LLC sets: 2048
LLC ways: 16
Off-chip DRAM Size: 4096 MB Channels: 1 Width: 64-bit Data Rate: 6400 MT/s
CPU 0 runs traces/spec2k17/srv_69.champsimtrace.xz
.xz
BTB has LRU replacement policy
ITLB has LRU replacement policy
DTLB has LRU replacement policy
STLB has LRU replacement policy
L1I has LRU replacement policy
L1D has LRU replacement policy
Initialize SRRIP state for L2C
Initialize DRRIP state for LLC
Heartbeat CPU 0 instructions: 10000001 cycles: 2795685 heartbeat IPC: 3.57694 cumulative IPC: 3.57694 (Simulation time: 0 hr 1 min 2 sec) 
Heartbeat CPU 0 instructions: 20000003 cycles: 5591821 heartbeat IPC: 3.57636 cumulative IPC: 3.57665 (Simulation time: 0 hr 2 min 4 sec) 
Heartbeat CPU 0 instructions: 30000000 cycles: 8380117 heartbeat IPC: 3.58642 cumulative IPC: 3.5799 (Simulation time: 0 hr 3 min 3 sec) 
*** Reached end of trace for Core: 0 Repeating trace: traces/spec2k17/srv_69.champsimtrace.xz
Heartbeat CPU 0 instructions: 40000003 cycles: 11170321 heartbeat IPC: 3.58397 cumulative IPC: 3.58092 (Simulation time: 0 hr 3 min 45 sec) 
Heartbeat CPU 0 instructions: 50000000 cycles: 13964562 heartbeat IPC: 3.57879 cumulative IPC: 3.58049 (Simulation time: 0 hr 4 min 28 sec) 

Warmup complete CPU 0 instructions: 50000004 cycles: 13964563 (Simulation time: 0 hr 4 min 28 sec) 

Heartbeat CPU 0 instructions: 60000000 cycles: 37390371 heartbeat IPC: 0.42688 cumulative IPC: 0.426879 (Simulation time: 0 hr 5 min 17 sec) 
*** Reached end of trace for Core: 0 Repeating trace: traces/spec2k17/srv_69.champsimtrace.xz
Heartbeat CPU 0 instructions: 70000001 cycles: 61009903 heartbeat IPC: 0.423378 cumulative IPC: 0.425122 (Simulation time: 0 hr 6 min 5 sec) 
Heartbeat CPU 0 instructions: 80000000 cycles: 84956780 heartbeat IPC: 0.417591 cumulative IPC: 0.422581 (Simulation time: 0 hr 6 min 53 sec) 
Heartbeat CPU 0 instructions: 90000001 cycles: 109161135 heartbeat IPC: 0.413149 cumulative IPC: 0.420183 (Simulation time: 0 hr 7 min 41 sec) 
*** Reached end of trace for Core: 0 Repeating trace: traces/spec2k17/srv_69.champsimtrace.xz
Heartbeat CPU 0 instructions: 100000000 cycles: 132906134 heartbeat IPC: 0.421141 cumulative IPC: 0.420374 (Simulation time: 0 hr 8 min 28 sec) 
Heartbeat CPU 0 instructions: 110000000 cycles: 156443032 heartbeat IPC: 0.424865 cumulative IPC: 0.421116 (Simulation time: 0 hr 9 min 16 sec) 
Heartbeat CPU 0 instructions: 120000002 cycles: 180831715 heartbeat IPC: 0.410026 cumulative IPC: 0.419495 (Simulation time: 0 hr 10 min 5 sec) 
*** Reached end of trace for Core: 0 Repeating trace: traces/spec2k17/srv_69.champsimtrace.xz
Heartbeat CPU 0 instructions: 130000000 cycles: 204435563 heartbeat IPC: 0.42366 cumulative IPC: 0.420011 (Simulation time: 0 hr 10 min 52 sec) 
Heartbeat CPU 0 instructions: 140000003 cycles: 228589721 heartbeat IPC: 0.414008 cumulative IPC: 0.419336 (Simulation time: 0 hr 11 min 40 sec) 
Heartbeat CPU 0 instructions: 150000000 cycles: 252550731 heartbeat IPC: 0.417345 cumulative IPC: 0.419136 (Simulation time: 0 hr 12 min 28 sec) 
*** Reached end of trace for Core: 0 Repeating trace: traces/spec2k17/srv_69.champsimtrace.xz
Heartbeat CPU 0 instructions: 160000001 cycles: 276058961 heartbeat IPC: 0.425383 cumulative IPC: 0.419696 (Simulation time: 0 hr 13 min 16 sec) 
Heartbeat CPU 0 instructions: 170000000 cycles: 299794575 heartbeat IPC: 0.421308 cumulative IPC: 0.41983 (Simulation time: 0 hr 14 min 4 sec) 
Heartbeat CPU 0 instructions: 180000003 cycles: 324019357 heartbeat IPC: 0.412801 cumulative IPC: 0.419281 (Simulation time: 0 hr 14 min 52 sec) 
*** Reached end of trace for Core: 0 Repeating trace: traces/spec2k17/srv_69.champsimtrace.xz
Heartbeat CPU 0 instructions: 190000000 cycles: 347449072 heartbeat IPC: 0.426808 cumulative IPC: 0.41981 (Simulation time: 0 hr 15 min 40 sec) 
Heartbeat CPU 0 instructions: 200000000 cycles: 371390023 heartbeat IPC: 0.417694 cumulative IPC: 0.419668 (Simulation time: 0 hr 16 min 28 sec) 
Heartbeat CPU 0 instructions: 210000002 cycles: 395583284 heartbeat IPC: 0.413338 cumulative IPC: 0.419267 (Simulation time: 0 hr 17 min 17 sec) 
*** Reached end of trace for Core: 0 Repeating trace: traces/spec2k17/srv_69.champsimtrace.xz
Heartbeat CPU 0 instructions: 220000000 cycles: 418935155 heartbeat IPC: 0.428231 cumulative IPC: 0.419784 (Simulation time: 0 hr 18 min 3 sec) 
Heartbeat CPU 0 instructions: 230000003 cycles: 443024361 heartbeat IPC: 0.415124 cumulative IPC: 0.419522 (Simulation time: 0 hr 18 min 50 sec) 
Heartbeat CPU 0 instructions: 240000000 cycles: 467174250 heartbeat IPC: 0.41408 cumulative IPC: 0.419232 (Simulation time: 0 hr 19 min 37 sec) 
*** Reached end of trace for Core: 0 Repeating trace: traces/spec2k17/srv_69.champsimtrace.xz
Heartbeat CPU 0 instructions: 250000003 cycles: 490371077 heartbeat IPC: 0.431094 cumulative IPC: 0.41981 (Simulation time: 0 hr 20 min 19 sec) 
Finished CPU 0 instructions: 200000003 cycles: 476406515 cumulative IPC: 0.41981 (Simulation time: 0 hr 20 min 19 sec) 

ChampSim completed all CPUs

Region of Interest Statistics

CPU 0 cumulative IPC: 0.41981 instructions: 200000003 cycles: 476406515
ITLB TOTAL     ACCESS:   31682568  HIT:   30867104  MISS:     815464  HIT %:    97.4261  MISS %:    2.57386   MPKI: 4.07732
ITLB LOAD TRANSLATION ACCESS:   31682568  HIT:   30867104  MISS:     815464  HIT %:    97.4261  MISS %:    2.57386   MPKI: 4.07732
ITLB PREFETCH  REQUESTED:          0  ISSUED:          0  USEFUL:          0  USELESS:          0
ITLB USEFUL LOAD PREFETCHES:          0 PREFETCH ISSUED TO LOWER LEVEL:          0  ACCURACY: -nan
ITLB TIMELY PREFETCHES:          0 LATE PREFETCHES: 0 DROPPED PREFETCHES: 0
ITLB PREFETCHES SAME FILL-ORIGIN LEVEL: 0 DIFFERENT FILL-ORIGIN LEVEL: 0
ITLB AVERAGE MISS LATENCY: 15.6641 cycles
ITLB RQ	ACCESS:   38413127	FORWARD:          0	MERGED:    6538321	TO_CACHE:   31874806

DTLB TOTAL     ACCESS:   37913460  HIT:   35451126  MISS:    2462334  HIT %:    93.5054  MISS %:    6.49462   MPKI: 12.3117
DTLB LOAD TRANSLATION ACCESS:   37913460  HIT:   35451126  MISS:    2462334  HIT %:    93.5054  MISS %:    6.49462   MPKI: 12.3117
DTLB PREFETCH  REQUESTED:          0  ISSUED:          0  USEFUL:          0  USELESS:          0
DTLB USEFUL LOAD PREFETCHES:          0 PREFETCH ISSUED TO LOWER LEVEL:          0  ACCURACY: -nan
DTLB TIMELY PREFETCHES:          0 LATE PREFETCHES: 0 DROPPED PREFETCHES: 0
DTLB PREFETCHES SAME FILL-ORIGIN LEVEL: 0 DIFFERENT FILL-ORIGIN LEVEL: 0
DTLB AVERAGE MISS LATENCY: 14.2087 cycles
DTLB RQ	ACCESS:   48352237	FORWARD:          0	MERGED:   10294565	TO_CACHE:   38057672

STLB TOTAL     ACCESS:    4352529  HIT:    3885738  MISS:     466791  HIT %:    89.2754  MISS %:    10.7246   MPKI: 2.33395
STLB LOAD TRANSLATION ACCESS:    3277798  HIT:    2819135  MISS:     458663  HIT %:     86.007  MISS %:     13.993   MPKI: 2.29331
STLB TRANSLATION FROM L1D PREFETCHER ACCESS:    1074731  HIT:    1066603  MISS:       8128  HIT %:    99.2437  MISS %:   0.756282   MPKI: 0.04064
STLB PREFETCH  REQUESTED:          0  ISSUED:          0  USEFUL:       5612  USELESS:       2508
STLB USEFUL LOAD PREFETCHES:       5612 PREFETCH ISSUED TO LOWER LEVEL:          0  ACCURACY: inf
STLB TIMELY PREFETCHES:       5612 LATE PREFETCHES: 148 DROPPED PREFETCHES: 351172
STLB PREFETCHES SAME FILL-ORIGIN LEVEL: 0 DIFFERENT FILL-ORIGIN LEVEL: 0
STLB AVERAGE MISS LATENCY: 40.6428 cycles
STLB RQ	ACCESS:    5122329	FORWARD:          0	MERGED:     390963	TO_CACHE:    4731366

STLB Hit, L1D data hit: 0
STLB Hit, L2C data hit: 0
STLB Hit, LLC data hit: 0
STLB Hit, LLC data miss: 0
STLB STLB hints to L2: 0
L1D TOTAL     ACCESS:   49149545  HIT:   46639009  MISS:    2510536  HIT %:     94.892  MISS %:    5.10795   MPKI: 12.5527
L1D LOAD      ACCESS:   28293152  HIT:   26189620  MISS:    2103532  HIT %:    92.5652  MISS %:    7.43477   MPKI: 10.5177
L1D RFO       ACCESS:   19508574  HIT:   19169139  MISS:     339435  HIT %:    98.2601  MISS %:    1.73993   MPKI: 1.69717
L1D PREFETCH  ACCESS:    1347819  HIT:    1280250  MISS:      67569  HIT %:    94.9868  MISS %:    5.01321   MPKI: 0.337845
AGUS PREFETCH L1 MISS: 0
L1D PREFETCH  REQUESTED:    7657127  ISSUED:    7043643  USEFUL:      16139  USELESS:      51422
L1D USEFUL LOAD PREFETCHES:      16139 PREFETCH ISSUED TO LOWER LEVEL:      69621  ACCURACY: 23.1812
L1D TIMELY PREFETCHES:      16139 LATE PREFETCHES: 1973 DROPPED PREFETCHES: 484487
L1D PREFETCHES SAME FILL-ORIGIN LEVEL: 69621 DIFFERENT FILL-ORIGIN LEVEL: 0
L1D AVERAGE MISS LATENCY: 205336 cycles
L1D RQ	ACCESS:   42631053	FORWARD:          0	MERGED:   13984683	TO_CACHE:   28429985
L1D WQ	ACCESS:   20255400	FORWARD:     219953	MERGED:     333148	TO_CACHE:   19922252
L1D PQ	ACCESS:    5199111	FORWARD:          0	MERGED:    3351011	TO_CACHE:    1844532

L1D UNIQUE REGIONS ACCESSED: 0
L1D REGIONS CONFLICTS: 0
L1D Cross Page Prefetch Requests: 7412634
L1D Same Page Prefetch Requests: 6442867
L1D ROI Sum of L1D PQ occupancy: 64965993
L1D PREFETCHES PUSHED FROM L2C: 0
L1I TOTAL     ACCESS:   36780206  HIT:   31721443  MISS:    5058763  HIT %:     86.246  MISS %:     13.754   MPKI: 25.2938
L1I LOAD      ACCESS:   36780206  HIT:   31721443  MISS:    5058763  HIT %:     86.246  MISS %:     13.754   MPKI: 25.2938
L1I PREFETCH  REQUESTED:          0  ISSUED:          0  USEFUL:          0  USELESS:          0
L1I USEFUL LOAD PREFETCHES:          0 PREFETCH ISSUED TO LOWER LEVEL:          0  ACCURACY: -nan
L1I TIMELY PREFETCHES:          0 LATE PREFETCHES: 0 DROPPED PREFETCHES: 0
L1I PREFETCHES SAME FILL-ORIGIN LEVEL: 0 DIFFERENT FILL-ORIGIN LEVEL: 0
L1I AVERAGE MISS LATENCY: 27.6403 cycles
L1I RQ	ACCESS:   57432003	FORWARD:          0	MERGED:   19018876	TO_CACHE:   38413127

BTB TOTAL     ACCESS:   23164671  HIT:   18167925  MISS:    4996746  HIT %:    78.4295  MISS %:    21.5705   MPKI: 24.9837
BTB BRANCH_DIRECT_JUMP	ACCESS:    1914726  HIT:    1629531  MISS:     285195
BTB BRANCH_INDIRECT	ACCESS:    9756590  HIT:    7380331  MISS:    2376259
BTB BRANCH_CONDITIONAL	ACCESS:    4774695  HIT:    4326607  MISS:     448088
BTB BRANCH_DIRECT_CALL	ACCESS:    2648257  HIT:    2097355  MISS:     550902
BTB BRANCH_INDIRECT_CALL	ACCESS:     697289  HIT:     631848  MISS:      65441
BTB BRANCH_RETURN	ACCESS:    3373114  HIT:    2102253  MISS:    1270861
BTB BRANCH_OTHER ACCESS:          0  HIT:          0  MISS:          0

L2C TOTAL     ACCESS:    9539678  HIT:    5757573  MISS:    3782105  HIT %:     60.354  MISS %:     39.646   MPKI: 18.9105
L2C LOAD      ACCESS:    7160214  HIT:    3881221  MISS:    3278993  HIT %:    54.2054  MISS %:    45.7946   MPKI: 16.395
L2C DATA LOAD MPKI: 5.56115
L2C INSTRUCTION LOAD MPKI: 10.8338
L2C RFO       ACCESS:     339356  HIT:     167736  MISS:     171620  HIT %:    49.4277  MISS %:    50.5723   MPKI: 0.8581
L2C PREFETCH  ACCESS:      69621  HIT:      28087  MISS:      41534  HIT %:    40.3427  MISS %:    59.6573   MPKI: 0.20767
AGUS PREFETCH L1 MISS: 0
L2C DATA PREFETCH MPKI: 0.20767
L2C INSTRUCTION PREFETCH MPKI: 0
L2C WRITEBACK ACCESS:     965912  HIT:     910947  MISS:      54965  HIT %:    94.3095  MISS %:    5.69048   MPKI: 0.274825
L2C LOAD TRANSLATION ACCESS:     580264  HIT:     376547  MISS:     203717  HIT %:    64.8924  MISS %:    35.1076   MPKI: 1.01858
L2C TRANSLATION FROM L1D PREFETCHER ACCESS:     424311  HIT:     393035  MISS:      31276  HIT %:     92.629  MISS %:    7.37101   MPKI: 0.15638
L2C PREFETCH  REQUESTED:          0  ISSUED:          0  USEFUL:      17272  USELESS:      55561
L2C USEFUL LOAD PREFETCHES:      17272 PREFETCH ISSUED TO LOWER LEVEL:      41534  ACCURACY: 41.5852
L2C TIMELY PREFETCHES:      17272 LATE PREFETCHES: 0 DROPPED PREFETCHES: 0
L2C PREFETCHES SAME FILL-ORIGIN LEVEL: 0 DIFFERENT FILL-ORIGIN LEVEL: 0
L2C AVERAGE MISS LATENCY: 42.2804 cycles
L2C RQ	ACCESS:    8504253	FORWARD:          0	MERGED:          0	TO_CACHE:    8504145
L2C WQ	ACCESS:     965912	FORWARD:        108	MERGED:          0	TO_CACHE:     965912
L2C PQ	ACCESS:      69621	FORWARD:          0	MERGED:          0	TO_CACHE:      69621

L2C Instructions Evicting Data 780998
L2C Translations Evicting Data 84813
L2C Data Evicting Data 494097
L2C Instructions Evicting Instructions 1246822
L2C Translations Evicting Instructions 137348
L2C Data Evicting Instructions 751463
L2C Instructions Evicting Translations 138942
L2C Translations Evicting Translations 12832
L2C Data Evicting Translations 79825
L2C Dense regions hint from L2: 0
PSCL5 TOTAL     ACCESS:     703466  HIT:     703466  MISS:          0  HIT %:        100  MISS %:          0   MPKI: 0
PSCL5 LOAD TRANSLATION ACCESS:     458514  HIT:     458514  MISS:          0  HIT %:        100  MISS %:          0   MPKI: 0
PSCL5 TRANSLATION FROM L1D PREFETCHER ACCESS:     244952  HIT:     244952  MISS:          0  HIT %:        100  MISS %:          0   MPKI: 0
PSCL5 PREFETCH  REQUESTED:          0  ISSUED:          0  USEFUL:          0  USELESS:          0
PSCL5 USEFUL LOAD PREFETCHES:          0 PREFETCH ISSUED TO LOWER LEVEL:          0  ACCURACY: -nan
PSCL5 TIMELY PREFETCHES:          0 LATE PREFETCHES: 0 DROPPED PREFETCHES: 0
PSCL5 PREFETCHES SAME FILL-ORIGIN LEVEL: 0 DIFFERENT FILL-ORIGIN LEVEL: 0

PSCL4 TOTAL     ACCESS:     607009  HIT:     605707  MISS:       1302  HIT %:    99.7855  MISS %:   0.214494   MPKI: 0.00651
PSCL4 LOAD TRANSLATION ACCESS:     429241  HIT:     427939  MISS:       1302  HIT %:    99.6967  MISS %:   0.303326   MPKI: 0.00651
PSCL4 TRANSLATION FROM L1D PREFETCHER ACCESS:     177768  HIT:     177768  MISS:          0  HIT %:        100  MISS %:          0   MPKI: 0
PSCL4 PREFETCH  REQUESTED:          0  ISSUED:          0  USEFUL:          0  USELESS:          0
PSCL4 USEFUL LOAD PREFETCHES:          0 PREFETCH ISSUED TO LOWER LEVEL:          0  ACCURACY: -nan
PSCL4 TIMELY PREFETCHES:          0 LATE PREFETCHES: 0 DROPPED PREFETCHES: 0
PSCL4 PREFETCHES SAME FILL-ORIGIN LEVEL: 0 DIFFERENT FILL-ORIGIN LEVEL: 0

PSCL3 TOTAL     ACCESS:     569631  HIT:     565767  MISS:       3864  HIT %:    99.3217  MISS %:   0.678334   MPKI: 0.01932
PSCL3 LOAD TRANSLATION ACCESS:     454984  HIT:     451120  MISS:       3864  HIT %:    99.1507  MISS %:   0.849261   MPKI: 0.01932
PSCL3 TRANSLATION FROM L1D PREFETCHER ACCESS:     114647  HIT:     114647  MISS:          0  HIT %:        100  MISS %:          0   MPKI: 0
PSCL3 PREFETCH  REQUESTED:          0  ISSUED:          0  USEFUL:          0  USELESS:          0
PSCL3 USEFUL LOAD PREFETCHES:          0 PREFETCH ISSUED TO LOWER LEVEL:          0  ACCURACY: -nan
PSCL3 TIMELY PREFETCHES:          0 LATE PREFETCHES: 0 DROPPED PREFETCHES: 0
PSCL3 PREFETCHES SAME FILL-ORIGIN LEVEL: 0 DIFFERENT FILL-ORIGIN LEVEL: 0

PSCL2 TOTAL     ACCESS:     491861  HIT:     372841  MISS:     119020  HIT %:    75.8021  MISS %:    24.1979   MPKI: 0.5951
PSCL2 LOAD TRANSLATION ACCESS:     460935  HIT:     341915  MISS:     119020  HIT %:    74.1786  MISS %:    25.8214   MPKI: 0.5951
PSCL2 TRANSLATION FROM L1D PREFETCHER ACCESS:      30926  HIT:      30926  MISS:          0  HIT %:        100  MISS %:          0   MPKI: 0
PSCL2 PREFETCH  REQUESTED:          0  ISSUED:          0  USEFUL:          0  USELESS:          0
PSCL2 USEFUL LOAD PREFETCHES:          0 PREFETCH ISSUED TO LOWER LEVEL:          0  ACCURACY: -nan
PSCL2 TIMELY PREFETCHES:          0 LATE PREFETCHES: 0 DROPPED PREFETCHES: 0
PSCL2 PREFETCHES SAME FILL-ORIGIN LEVEL: 0 DIFFERENT FILL-ORIGIN LEVEL: 0

LLC TOTAL     ACCESS:    4197318  HIT:    3881327  MISS:     315991  HIT %:    92.4716  MISS %:     7.5284   MPKI: 1.57995
LLC LOAD      ACCESS:    3278993  HIT:    3036868  MISS:     242125  HIT %:    92.6159  MISS %:    7.38413   MPKI: 1.21062
LLC RFO       ACCESS:     171620  HIT:     122641  MISS:      48979  HIT %:    71.4608  MISS %:    28.5392   MPKI: 0.244895
LLC PREFETCH  ACCESS:      41534  HIT:      29677  MISS:      11857  HIT %:    71.4523  MISS %:    28.5477   MPKI: 0.059285
AGUS PREFETCH L1 MISS: 0
LLC WRITEBACK ACCESS:     470178  HIT:     466270  MISS:       3908  HIT %:    99.1688  MISS %:   0.831175   MPKI: 0.01954
LLC LOAD TRANSLATION ACCESS:     203717  HIT:     197097  MISS:       6620  HIT %:    96.7504  MISS %:    3.24961   MPKI: 0.0331
LLC TRANSLATION FROM L1D PREFETCHER ACCESS:      31276  HIT:      28774  MISS:       2502  HIT %:    92.0003  MISS %:    7.99974   MPKI: 0.01251
LLC PREFETCH  REQUESTED:          0  ISSUED:          0  USEFUL:       4849  USELESS:       9725
LLC USEFUL LOAD PREFETCHES:       4849 PREFETCH ISSUED TO LOWER LEVEL:      11857  ACCURACY: 40.8957
LLC TIMELY PREFETCHES:       4849 LATE PREFETCHES: 0 DROPPED PREFETCHES: 0
LLC PREFETCHES SAME FILL-ORIGIN LEVEL: 0 DIFFERENT FILL-ORIGIN LEVEL: 0
LLC AVERAGE MISS LATENCY: 152.197 cycles
LLC RQ	ACCESS:    3685606	FORWARD:          0	MERGED:          0	TO_CACHE:    3685606
LLC WQ	ACCESS:     470178	FORWARD:          0	MERGED:          0	TO_CACHE:     470178
LLC PQ	ACCESS:      41534	FORWARD:          0	MERGED:          0	TO_CACHE:      41534

LLC Dense regions hint to LLC: 0

RAW hits: 2747060
Loads Generated: 45378116
Loads sent to L1D: 42631053
Stores Generated: 20255404
Stores sent to L1D: 20255400
Major fault: 0 Minor fault: 5460
Allocated PAGES: 5460

DRAM Statistics
 CHANNEL 0
 RQ ROW_BUFFER_HIT:      54734  ROW_BUFFER_MISS:     257349
 DBUS_CONGESTED:        144
 WQ ROW_BUFFER_HIT:      29427  ROW_BUFFER_MISS:     177950  FULL:          0

 AVG_CONGESTED_CYCLE: 4
 All warmup complete: 2
Channel 0 Bank busy for read cycles: 0
Channel 0 Bank busy for write cycles: 0
Channel 0
Rank 0
0banks busy for read cycles: 418066017
0banks busy for write cycles: 119164
1banks busy for read cycles: 28819565
1banks busy for write cycles: 16935619
2banks busy for read cycles: 4305419
2banks busy for write cycles: 3873786
3banks busy for read cycles: 652390
3banks busy for write cycles: 1414657
4banks busy for read cycles: 227039
4banks busy for write cycles: 728575
5banks busy for read cycles: 77839
5banks busy for write cycles: 430418
6banks busy for read cycles: 41030
6banks busy for write cycles: 282867
7banks busy for read cycles: 26241
7banks busy for write cycles: 198132
8banks busy for read cycles: 28137
8banks busy for write cycles: 179621

CPU 0 Branch Prediction Accuracy: 99.7309% MPKI: 0.485 Average ROB Occupancy at Mispredict: 31.0689
Branch types
NOT_BRANCH: 163956020 81.978%
BRANCH_DIRECT_JUMP: 1914726 0.957363%
BRANCH_INDIRECT: 9756590 4.87829%
BRANCH_CONDITIONAL: 17653767 8.82688%
BRANCH_DIRECT_CALL: 2648257 1.32413%
BRANCH_INDIRECT_CALL: 697289 0.348644%
BRANCH_RETURN: 3373114 1.68656%
BRANCH_OTHER: 0 0%

DRAM PAGES: 1048576
Allocated PAGES: 5460
