
*** ChampSim Multicore Out-of-Order Simulator ***

Warmup Instructions: 50000000
Simulation Instructions: 200000000
Number of CPUs: 1
LLC sets: 2048
LLC ways: 16
Off-chip DRAM Size: 4096 MB Channels: 1 Width: 64-bit Data Rate: 6400 MT/s
CPU 0 runs traces/spec2k17/srv_54.champsimtrace.xz
.xz
BTB has LRU replacement policy
ITLB has LRU replacement policy
DTLB has LRU replacement policy
STLB has LRU replacement policy
L1I has LRU replacement policy
L1D has LRU replacement policy
Initialize SRRIP state for L2C
Initialize DRRIP state for LLC
Heartbeat CPU 0 instructions: 10000000 cycles: 2821039 heartbeat IPC: 3.54479 cumulative IPC: 3.54479 (Simulation time: 0 hr 0 min 59 sec) 
Heartbeat CPU 0 instructions: 20000002 cycles: 5638916 heartbeat IPC: 3.54877 cumulative IPC: 3.54678 (Simulation time: 0 hr 1 min 57 sec) 
Heartbeat CPU 0 instructions: 30000001 cycles: 8463898 heartbeat IPC: 3.53985 cumulative IPC: 3.54447 (Simulation time: 0 hr 2 min 53 sec) 
*** Reached end of trace for Core: 0 Repeating trace: traces/spec2k17/srv_54.champsimtrace.xz
Heartbeat CPU 0 instructions: 40000000 cycles: 11273117 heartbeat IPC: 3.55971 cumulative IPC: 3.54826 (Simulation time: 0 hr 3 min 38 sec) 
Heartbeat CPU 0 instructions: 50000001 cycles: 14099557 heartbeat IPC: 3.53802 cumulative IPC: 3.54621 (Simulation time: 0 hr 4 min 18 sec) 

Warmup complete CPU 0 instructions: 50000001 cycles: 14099557 (Simulation time: 0 hr 4 min 18 sec) 

Heartbeat CPU 0 instructions: 60000003 cycles: 34080157 heartbeat IPC: 0.500486 cumulative IPC: 0.500486 (Simulation time: 0 hr 5 min 6 sec) 
*** Reached end of trace for Core: 0 Repeating trace: traces/spec2k17/srv_54.champsimtrace.xz
Heartbeat CPU 0 instructions: 70000001 cycles: 51963641 heartbeat IPC: 0.559175 cumulative IPC: 0.528205 (Simulation time: 0 hr 5 min 52 sec) 
Heartbeat CPU 0 instructions: 80000002 cycles: 71405458 heartbeat IPC: 0.514355 cumulative IPC: 0.523506 (Simulation time: 0 hr 6 min 40 sec) 
Heartbeat CPU 0 instructions: 90000001 cycles: 91900073 heartbeat IPC: 0.487933 cumulative IPC: 0.514135 (Simulation time: 0 hr 7 min 27 sec) 
*** Reached end of trace for Core: 0 Repeating trace: traces/spec2k17/srv_54.champsimtrace.xz
Heartbeat CPU 0 instructions: 100000002 cycles: 111176478 heartbeat IPC: 0.518769 cumulative IPC: 0.515055 (Simulation time: 0 hr 8 min 14 sec) 
Heartbeat CPU 0 instructions: 110000000 cycles: 128542750 heartbeat IPC: 0.575829 cumulative IPC: 0.524278 (Simulation time: 0 hr 8 min 58 sec) 
Heartbeat CPU 0 instructions: 120000003 cycles: 149912309 heartbeat IPC: 0.467956 cumulative IPC: 0.515416 (Simulation time: 0 hr 9 min 45 sec) 
*** Reached end of trace for Core: 0 Repeating trace: traces/spec2k17/srv_54.champsimtrace.xz
Heartbeat CPU 0 instructions: 130000001 cycles: 168757583 heartbeat IPC: 0.530637 cumulative IPC: 0.51727 (Simulation time: 0 hr 10 min 32 sec) 
Heartbeat CPU 0 instructions: 140000000 cycles: 187462996 heartbeat IPC: 0.534605 cumulative IPC: 0.519141 (Simulation time: 0 hr 11 min 18 sec) 
Heartbeat CPU 0 instructions: 150000000 cycles: 208894705 heartbeat IPC: 0.466598 cumulative IPC: 0.51336 (Simulation time: 0 hr 12 min 5 sec) 
*** Reached end of trace for Core: 0 Repeating trace: traces/spec2k17/srv_54.champsimtrace.xz
Heartbeat CPU 0 instructions: 160000002 cycles: 226633956 heartbeat IPC: 0.563722 cumulative IPC: 0.517563 (Simulation time: 0 hr 12 min 50 sec) 
Heartbeat CPU 0 instructions: 170000001 cycles: 246270378 heartbeat IPC: 0.509258 cumulative IPC: 0.516861 (Simulation time: 0 hr 13 min 36 sec) 
Heartbeat CPU 0 instructions: 180000001 cycles: 267561511 heartbeat IPC: 0.469679 cumulative IPC: 0.512897 (Simulation time: 0 hr 14 min 23 sec) 
*** Reached end of trace for Core: 0 Repeating trace: traces/spec2k17/srv_54.champsimtrace.xz
Heartbeat CPU 0 instructions: 190000002 cycles: 284816766 heartbeat IPC: 0.579534 cumulative IPC: 0.517145 (Simulation time: 0 hr 15 min 8 sec) 
Heartbeat CPU 0 instructions: 200000000 cycles: 303399948 heartbeat IPC: 0.538121 cumulative IPC: 0.518492 (Simulation time: 0 hr 15 min 54 sec) 
Heartbeat CPU 0 instructions: 210000000 cycles: 326335207 heartbeat IPC: 0.43601 cumulative IPC: 0.512433 (Simulation time: 0 hr 16 min 41 sec) 
*** Reached end of trace for Core: 0 Repeating trace: traces/spec2k17/srv_54.champsimtrace.xz
Heartbeat CPU 0 instructions: 220000000 cycles: 343726814 heartbeat IPC: 0.57499 cumulative IPC: 0.515734 (Simulation time: 0 hr 17 min 27 sec) 
Heartbeat CPU 0 instructions: 230000001 cycles: 360315922 heartbeat IPC: 0.602805 cumulative IPC: 0.519906 (Simulation time: 0 hr 18 min 12 sec) 
Heartbeat CPU 0 instructions: 240000002 cycles: 385135374 heartbeat IPC: 0.40291 cumulative IPC: 0.51208 (Simulation time: 0 hr 18 min 59 sec) 
*** Reached end of trace for Core: 0 Repeating trace: traces/spec2k17/srv_54.champsimtrace.xz
Heartbeat CPU 0 instructions: 250000000 cycles: 402083935 heartbeat IPC: 0.59002 cumulative IPC: 0.515485 (Simulation time: 0 hr 19 min 44 sec) 
Finished CPU 0 instructions: 200000000 cycles: 387984602 cumulative IPC: 0.515484 (Simulation time: 0 hr 19 min 44 sec) 

ChampSim completed all CPUs

Region of Interest Statistics

CPU 0 cumulative IPC: 0.515484 instructions: 200000000 cycles: 387984602
ITLB TOTAL     ACCESS:   33884552  HIT:   33285426  MISS:     599126  HIT %:    98.2319  MISS %:    1.76814   MPKI: 2.99563
ITLB LOAD TRANSLATION ACCESS:   33884552  HIT:   33285426  MISS:     599126  HIT %:    98.2319  MISS %:    1.76814   MPKI: 2.99563
ITLB PREFETCH  REQUESTED:          0  ISSUED:          0  USEFUL:          0  USELESS:          0
ITLB USEFUL LOAD PREFETCHES:          0 PREFETCH ISSUED TO LOWER LEVEL:          0  ACCURACY: -nan
ITLB TIMELY PREFETCHES:          0 LATE PREFETCHES: 0 DROPPED PREFETCHES: 0
ITLB PREFETCHES SAME FILL-ORIGIN LEVEL: 0 DIFFERENT FILL-ORIGIN LEVEL: 0
ITLB AVERAGE MISS LATENCY: 10.6458 cycles
ITLB RQ	ACCESS:   38514613	FORWARD:          0	MERGED:    4457351	TO_CACHE:   34057262

DTLB TOTAL     ACCESS:   39068642  HIT:   38443612  MISS:     625030  HIT %:    98.4002  MISS %:    1.59983   MPKI: 3.12515
DTLB LOAD TRANSLATION ACCESS:   39068642  HIT:   38443612  MISS:     625030  HIT %:    98.4002  MISS %:    1.59983   MPKI: 3.12515
DTLB PREFETCH  REQUESTED:          0  ISSUED:          0  USEFUL:          0  USELESS:          0
DTLB USEFUL LOAD PREFETCHES:          0 PREFETCH ISSUED TO LOWER LEVEL:          0  ACCURACY: -nan
DTLB TIMELY PREFETCHES:          0 LATE PREFETCHES: 0 DROPPED PREFETCHES: 0
DTLB PREFETCHES SAME FILL-ORIGIN LEVEL: 0 DIFFERENT FILL-ORIGIN LEVEL: 0
DTLB AVERAGE MISS LATENCY: 16.059 cycles
DTLB RQ	ACCESS:   51318546	FORWARD:          0	MERGED:   12200240	TO_CACHE:   39118306

STLB TOTAL     ACCESS:    1590416  HIT:    1511459  MISS:      78957  HIT %:    95.0354  MISS %:    4.96455   MPKI: 0.394785
STLB LOAD TRANSLATION ACCESS:    1224156  HIT:    1145758  MISS:      78398  HIT %:    93.5958  MISS %:    6.40425   MPKI: 0.39199
STLB TRANSLATION FROM L1D PREFETCHER ACCESS:     366260  HIT:     365701  MISS:        559  HIT %:    99.8474  MISS %:   0.152624   MPKI: 0.002795
STLB PREFETCH  REQUESTED:          0  ISSUED:          0  USEFUL:        447  USELESS:        115
STLB USEFUL LOAD PREFETCHES:        447 PREFETCH ISSUED TO LOWER LEVEL:          0  ACCURACY: inf
STLB TIMELY PREFETCHES:        447 LATE PREFETCHES: 56 DROPPED PREFETCHES: 329357
STLB PREFETCHES SAME FILL-ORIGIN LEVEL: 0 DIFFERENT FILL-ORIGIN LEVEL: 0
STLB AVERAGE MISS LATENCY: 17081.9 cycles
STLB RQ	ACCESS:    2462959	FORWARD:          0	MERGED:     502023	TO_CACHE:    1960936

STLB Hit, L1D data hit: 0
STLB Hit, L2C data hit: 0
STLB Hit, LLC data hit: 0
STLB Hit, LLC data miss: 0
STLB STLB hints to L2: 0
L1D TOTAL     ACCESS:   51115181  HIT:   49429617  MISS:    1685564  HIT %:    96.7024  MISS %:    3.29758   MPKI: 8.42782
L1D LOAD      ACCESS:   31229231  HIT:   30121441  MISS:    1107790  HIT %:    96.4527  MISS %:    3.54729   MPKI: 5.53895
L1D RFO       ACCESS:   19203501  HIT:   18674030  MISS:     529471  HIT %:    97.2428  MISS %:    2.75716   MPKI: 2.64736
L1D PREFETCH  ACCESS:     682449  HIT:     634146  MISS:      48303  HIT %:    92.9221  MISS %:    7.07789   MPKI: 0.241515
AGUS PREFETCH L1 MISS: 0
L1D PREFETCH  REQUESTED:    9701723  ISSUED:    9407962  USEFUL:      21946  USELESS:      26366
L1D USEFUL LOAD PREFETCHES:      21946 PREFETCH ISSUED TO LOWER LEVEL:      52930  ACCURACY: 41.4623
L1D TIMELY PREFETCHES:      21946 LATE PREFETCHES: 4593 DROPPED PREFETCHES: 526385
L1D PREFETCHES SAME FILL-ORIGIN LEVEL: 52930 DIFFERENT FILL-ORIGIN LEVEL: 0
L1D AVERAGE MISS LATENCY: 569263 cycles
L1D RQ	ACCESS:   43755875	FORWARD:          0	MERGED:   12120343	TO_CACHE:   31321808
L1D WQ	ACCESS:   20218306	FORWARD:     317657	MERGED:     221568	TO_CACHE:   19996738
L1D PQ	ACCESS:    8169159	FORWARD:          0	MERGED:    6926423	TO_CACHE:    1238803

L1D UNIQUE REGIONS ACCESSED: 0
L1D REGIONS CONFLICTS: 0
L1D Cross Page Prefetch Requests: 2417573
L1D Same Page Prefetch Requests: 10418583
L1D ROI Sum of L1D PQ occupancy: 53472189
L1D PREFETCHES PUSHED FROM L2C: 0
L1I TOTAL     ACCESS:   37977355  HIT:   34694103  MISS:    3283252  HIT %:    91.3547  MISS %:    8.64529   MPKI: 16.4163
L1I LOAD      ACCESS:   37977355  HIT:   34694103  MISS:    3283252  HIT %:    91.3547  MISS %:    8.64529   MPKI: 16.4163
L1I PREFETCH  REQUESTED:          0  ISSUED:          0  USEFUL:          0  USELESS:          0
L1I USEFUL LOAD PREFETCHES:          0 PREFETCH ISSUED TO LOWER LEVEL:          0  ACCURACY: -nan
L1I TIMELY PREFETCHES:          0 LATE PREFETCHES: 0 DROPPED PREFETCHES: 0
L1I PREFETCHES SAME FILL-ORIGIN LEVEL: 0 DIFFERENT FILL-ORIGIN LEVEL: 0
L1I AVERAGE MISS LATENCY: 22.266 cycles
L1I RQ	ACCESS:   60216640	FORWARD:          0	MERGED:   21702027	TO_CACHE:   38514613

BTB TOTAL     ACCESS:   31119945  HIT:   26685031  MISS:    4434914  HIT %:     85.749  MISS %:     14.251   MPKI: 22.1746
BTB BRANCH_DIRECT_JUMP	ACCESS:    3483278  HIT:    3224169  MISS:     259109
BTB BRANCH_INDIRECT	ACCESS:   12132846  HIT:   10375979  MISS:    1756867
BTB BRANCH_CONDITIONAL	ACCESS:    9258792  HIT:    8942003  MISS:     316789
BTB BRANCH_DIRECT_CALL	ACCESS:    2660044  HIT:    2167295  MISS:     492749
BTB BRANCH_INDIRECT_CALL	ACCESS:     462477  HIT:     321593  MISS:     140884
BTB BRANCH_RETURN	ACCESS:    3122508  HIT:    1653992  MISS:    1468516
BTB BRANCH_OTHER ACCESS:          0  HIT:          0  MISS:          0

L2C TOTAL     ACCESS:    6420505  HIT:    4562565  MISS:    1857940  HIT %:    71.0624  MISS %:    28.9376   MPKI: 9.2897
L2C LOAD      ACCESS:    4386433  HIT:    3010026  MISS:    1376407  HIT %:    68.6213  MISS %:    31.3787   MPKI: 6.88204
L2C DATA LOAD MPKI: 2.58169
L2C INSTRUCTION LOAD MPKI: 4.30035
L2C RFO       ACCESS:     529437  HIT:     208215  MISS:     321222  HIT %:    39.3276  MISS %:    60.6724   MPKI: 1.60611
L2C PREFETCH  ACCESS:      52930  HIT:      28332  MISS:      24598  HIT %:    53.5273  MISS %:    46.4727   MPKI: 0.12299
AGUS PREFETCH L1 MISS: 0
L2C DATA PREFETCH MPKI: 0.12299
L2C INSTRUCTION PREFETCH MPKI: 0
L2C WRITEBACK ACCESS:     893468  HIT:     836191  MISS:      57277  HIT %:    93.5894  MISS %:    6.41064   MPKI: 0.286385
L2C LOAD TRANSLATION ACCESS:     118361  HIT:      54228  MISS:      64133  HIT %:    45.8158  MISS %:    54.1842   MPKI: 0.320665
L2C TRANSLATION FROM L1D PREFETCHER ACCESS:     439876  HIT:     425573  MISS:      14303  HIT %:    96.7484  MISS %:     3.2516   MPKI: 0.071515
L2C PREFETCH  REQUESTED:          0  ISSUED:          0  USEFUL:       9042  USELESS:      29864
L2C USEFUL LOAD PREFETCHES:       9042 PREFETCH ISSUED TO LOWER LEVEL:      24598  ACCURACY: 36.7591
L2C TIMELY PREFETCHES:       9042 LATE PREFETCHES: 0 DROPPED PREFETCHES: 0
L2C PREFETCHES SAME FILL-ORIGIN LEVEL: 0 DIFFERENT FILL-ORIGIN LEVEL: 0
L2C AVERAGE MISS LATENCY: 59.385 cycles
L2C RQ	ACCESS:    5474122	FORWARD:          0	MERGED:          0	TO_CACHE:    5474107
L2C WQ	ACCESS:     893468	FORWARD:         15	MERGED:          0	TO_CACHE:     893468
L2C PQ	ACCESS:      52930	FORWARD:          0	MERGED:          0	TO_CACHE:      52930

L2C Instructions Evicting Data 412822
L2C Translations Evicting Data 38798
L2C Data Evicting Data 438288
L2C Instructions Evicting Instructions 410948
L2C Translations Evicting Instructions 36091
L2C Data Evicting Instructions 386966
L2C Instructions Evicting Translations 36299
L2C Translations Evicting Translations 3547
L2C Data Evicting Translations 36904
L2C Dense regions hint from L2: 0
PSCL5 TOTAL     ACCESS:     333158  HIT:     333158  MISS:          0  HIT %:        100  MISS %:          0   MPKI: 0
PSCL5 LOAD TRANSLATION ACCESS:      78342  HIT:      78342  MISS:          0  HIT %:        100  MISS %:          0   MPKI: 0
PSCL5 TRANSLATION FROM L1D PREFETCHER ACCESS:     254816  HIT:     254816  MISS:          0  HIT %:        100  MISS %:          0   MPKI: 0
PSCL5 PREFETCH  REQUESTED:          0  ISSUED:          0  USEFUL:          0  USELESS:          0
PSCL5 USEFUL LOAD PREFETCHES:          0 PREFETCH ISSUED TO LOWER LEVEL:          0  ACCURACY: -nan
PSCL5 TIMELY PREFETCHES:          0 LATE PREFETCHES: 0 DROPPED PREFETCHES: 0
PSCL5 PREFETCHES SAME FILL-ORIGIN LEVEL: 0 DIFFERENT FILL-ORIGIN LEVEL: 0

PSCL4 TOTAL     ACCESS:     309683  HIT:     309094  MISS:        589  HIT %:    99.8098  MISS %:   0.190194   MPKI: 0.002945
PSCL4 LOAD TRANSLATION ACCESS:      75543  HIT:      74954  MISS:        589  HIT %:    99.2203  MISS %:   0.779688   MPKI: 0.002945
PSCL4 TRANSLATION FROM L1D PREFETCHER ACCESS:     234140  HIT:     234140  MISS:          0  HIT %:        100  MISS %:          0   MPKI: 0
PSCL4 PREFETCH  REQUESTED:          0  ISSUED:          0  USEFUL:          0  USELESS:          0
PSCL4 USEFUL LOAD PREFETCHES:          0 PREFETCH ISSUED TO LOWER LEVEL:          0  ACCURACY: -nan
PSCL4 TIMELY PREFETCHES:          0 LATE PREFETCHES: 0 DROPPED PREFETCHES: 0
PSCL4 PREFETCHES SAME FILL-ORIGIN LEVEL: 0 DIFFERENT FILL-ORIGIN LEVEL: 0

PSCL3 TOTAL     ACCESS:     191642  HIT:     181223  MISS:      10419  HIT %:    94.5633  MISS %:     5.4367   MPKI: 0.052095
PSCL3 LOAD TRANSLATION ACCESS:      72440  HIT:      62021  MISS:      10419  HIT %:    85.6171  MISS %:    14.3829   MPKI: 0.052095
PSCL3 TRANSLATION FROM L1D PREFETCHER ACCESS:     119202  HIT:     119202  MISS:          0  HIT %:        100  MISS %:          0   MPKI: 0
PSCL3 PREFETCH  REQUESTED:          0  ISSUED:          0  USEFUL:          0  USELESS:          0
PSCL3 USEFUL LOAD PREFETCHES:          0 PREFETCH ISSUED TO LOWER LEVEL:          0  ACCURACY: -nan
PSCL3 TIMELY PREFETCHES:          0 LATE PREFETCHES: 0 DROPPED PREFETCHES: 0
PSCL3 PREFETCHES SAME FILL-ORIGIN LEVEL: 0 DIFFERENT FILL-ORIGIN LEVEL: 0

PSCL2 TOTAL     ACCESS:      89553  HIT:      60206  MISS:      29347  HIT %:    67.2295  MISS %:    32.7705   MPKI: 0.146735
PSCL2 LOAD TRANSLATION ACCESS:      78580  HIT:      49233  MISS:      29347  HIT %:    62.6533  MISS %:    37.3467   MPKI: 0.146735
PSCL2 TRANSLATION FROM L1D PREFETCHER ACCESS:      10973  HIT:      10973  MISS:          0  HIT %:        100  MISS %:          0   MPKI: 0
PSCL2 PREFETCH  REQUESTED:          0  ISSUED:          0  USEFUL:          0  USELESS:          0
PSCL2 USEFUL LOAD PREFETCHES:          0 PREFETCH ISSUED TO LOWER LEVEL:          0  ACCURACY: -nan
PSCL2 TIMELY PREFETCHES:          0 LATE PREFETCHES: 0 DROPPED PREFETCHES: 0
PSCL2 PREFETCHES SAME FILL-ORIGIN LEVEL: 0 DIFFERENT FILL-ORIGIN LEVEL: 0

LLC TOTAL     ACCESS:    2294609  HIT:    2008957  MISS:     285652  HIT %:    87.5512  MISS %:    12.4488   MPKI: 1.42826
LLC LOAD      ACCESS:    1376407  HIT:    1229432  MISS:     146975  HIT %:    89.3218  MISS %:    10.6782   MPKI: 0.734875
LLC RFO       ACCESS:     321220  HIT:     202483  MISS:     118737  HIT %:    63.0356  MISS %:    36.9644   MPKI: 0.593685
LLC PREFETCH  ACCESS:      24598  HIT:      16727  MISS:       7871  HIT %:    68.0015  MISS %:    31.9985   MPKI: 0.039355
AGUS PREFETCH L1 MISS: 0
LLC WRITEBACK ACCESS:     493948  HIT:     492183  MISS:       1765  HIT %:    99.6427  MISS %:   0.357325   MPKI: 0.008825
LLC LOAD TRANSLATION ACCESS:      64133  HIT:      56041  MISS:       8092  HIT %:    87.3825  MISS %:    12.6175   MPKI: 0.04046
LLC TRANSLATION FROM L1D PREFETCHER ACCESS:      14303  HIT:      12091  MISS:       2212  HIT %:    84.5347  MISS %:    15.4653   MPKI: 0.01106
LLC PREFETCH  REQUESTED:          0  ISSUED:          0  USEFUL:        722  USELESS:       9662
LLC USEFUL LOAD PREFETCHES:        722 PREFETCH ISSUED TO LOWER LEVEL:       7871  ACCURACY: 9.17291
LLC TIMELY PREFETCHES:        722 LATE PREFETCHES: 0 DROPPED PREFETCHES: 0
LLC PREFETCHES SAME FILL-ORIGIN LEVEL: 0 DIFFERENT FILL-ORIGIN LEVEL: 0
LLC AVERAGE MISS LATENCY: 197.135 cycles
LLC RQ	ACCESS:    1776065	FORWARD:          0	MERGED:          0	TO_CACHE:    1776063
LLC WQ	ACCESS:     493948	FORWARD:          2	MERGED:          0	TO_CACHE:     493948
LLC PQ	ACCESS:      24598	FORWARD:          0	MERGED:          0	TO_CACHE:      24598

LLC Dense regions hint to LLC: 0

RAW hits: 2297216
Loads Generated: 46053091
Loads sent to L1D: 43755875
Stores Generated: 20218330
Stores sent to L1D: 20218306
Major fault: 0 Minor fault: 4930
Allocated PAGES: 4930

DRAM Statistics
 CHANNEL 0
 RQ ROW_BUFFER_HIT:      62471  ROW_BUFFER_MISS:     221415
 DBUS_CONGESTED:        113
 WQ ROW_BUFFER_HIT:      28447  ROW_BUFFER_MISS:     162310  FULL:          0

 AVG_CONGESTED_CYCLE: 4
 All warmup complete: 2
Channel 0 Bank busy for read cycles: 0
Channel 0 Bank busy for write cycles: 0
Channel 0
Rank 0
0banks busy for read cycles: 345991643
0banks busy for write cycles: 80690
1banks busy for read cycles: 18913624
1banks busy for write cycles: 11494983
2banks busy for read cycles: 3262760
2banks busy for write cycles: 2857750
3banks busy for read cycles: 792040
3banks busy for write cycles: 1108035
4banks busy for read cycles: 228023
4banks busy for write cycles: 521390
5banks busy for read cycles: 116900
5banks busy for write cycles: 257185
6banks busy for read cycles: 125567
6banks busy for write cycles: 139798
7banks busy for read cycles: 186314
7banks busy for write cycles: 156846
8banks busy for read cycles: 651847
8banks busy for write cycles: 1099208

CPU 0 Branch Prediction Accuracy: 99.6389% MPKI: 0.649475 Average ROB Occupancy at Mispredict: 29.3578
Branch types
NOT_BRANCH: 164024578 82.0123%
BRANCH_DIRECT_JUMP: 3483278 1.74164%
BRANCH_INDIRECT: 12132846 6.06642%
BRANCH_CONDITIONAL: 14114305 7.05715%
BRANCH_DIRECT_CALL: 2660044 1.33002%
BRANCH_INDIRECT_CALL: 462477 0.231239%
BRANCH_RETURN: 3122508 1.56125%
BRANCH_OTHER: 0 0%

DRAM PAGES: 1048576
Allocated PAGES: 4930
