
*** ChampSim Multicore Out-of-Order Simulator ***

Warmup Instructions: 50000000
Simulation Instructions: 200000000
Number of CPUs: 1
LLC sets: 2048
LLC ways: 16
Off-chip DRAM Size: 4096 MB Channels: 1 Width: 64-bit Data Rate: 6400 MT/s
CPU 0 runs traces/spec2k17/srv_10.champsimtrace.xz
.xz
BTB has LRU replacement policy
ITLB has LRU replacement policy
DTLB has LRU replacement policy
STLB has LRU replacement policy
L1I has LRU replacement policy
L1D has LRU replacement policy
Initialize SRRIP state for L2C
Initialize DRRIP state for LLC
Heartbeat CPU 0 instructions: 10000000 cycles: 2793774 heartbeat IPC: 3.57939 cumulative IPC: 3.57939 (Simulation time: 0 hr 1 min 0 sec) 
Heartbeat CPU 0 instructions: 20000002 cycles: 5580158 heartbeat IPC: 3.58888 cumulative IPC: 3.58413 (Simulation time: 0 hr 2 min 1 sec) 
Heartbeat CPU 0 instructions: 30000002 cycles: 8366889 heartbeat IPC: 3.58843 cumulative IPC: 3.58556 (Simulation time: 0 hr 3 min 2 sec) 
*** Reached end of trace for Core: 0 Repeating trace: traces/spec2k17/srv_10.champsimtrace.xz
Heartbeat CPU 0 instructions: 40000001 cycles: 11154704 heartbeat IPC: 3.58704 cumulative IPC: 3.58593 (Simulation time: 0 hr 4 min 4 sec) 
Heartbeat CPU 0 instructions: 50000002 cycles: 13939689 heartbeat IPC: 3.59068 cumulative IPC: 3.58688 (Simulation time: 0 hr 5 min 11 sec) 

Warmup complete CPU 0 instructions: 50000002 cycles: 13939689 (Simulation time: 0 hr 5 min 11 sec) 

Heartbeat CPU 0 instructions: 60000000 cycles: 37159354 heartbeat IPC: 0.430669 cumulative IPC: 0.430669 (Simulation time: 0 hr 6 min 26 sec) 
*** Reached end of trace for Core: 0 Repeating trace: traces/spec2k17/srv_10.champsimtrace.xz
Heartbeat CPU 0 instructions: 70000003 cycles: 60778988 heartbeat IPC: 0.423377 cumulative IPC: 0.426992 (Simulation time: 0 hr 7 min 40 sec) 
Heartbeat CPU 0 instructions: 80000001 cycles: 84305789 heartbeat IPC: 0.425047 cumulative IPC: 0.426342 (Simulation time: 0 hr 8 min 51 sec) 
Heartbeat CPU 0 instructions: 90000000 cycles: 107358770 heartbeat IPC: 0.433783 cumulative IPC: 0.428178 (Simulation time: 0 hr 10 min 4 sec) 
*** Reached end of trace for Core: 0 Repeating trace: traces/spec2k17/srv_10.champsimtrace.xz
Heartbeat CPU 0 instructions: 100000002 cycles: 130897332 heartbeat IPC: 0.424835 cumulative IPC: 0.427505 (Simulation time: 0 hr 11 min 18 sec) 
Heartbeat CPU 0 instructions: 110000000 cycles: 154413990 heartbeat IPC: 0.42523 cumulative IPC: 0.427124 (Simulation time: 0 hr 12 min 35 sec) 
Heartbeat CPU 0 instructions: 120000000 cycles: 177566422 heartbeat IPC: 0.43192 cumulative IPC: 0.427803 (Simulation time: 0 hr 13 min 50 sec) 
*** Reached end of trace for Core: 0 Repeating trace: traces/spec2k17/srv_10.champsimtrace.xz
Heartbeat CPU 0 instructions: 130000002 cycles: 200917356 heartbeat IPC: 0.428248 cumulative IPC: 0.427859 (Simulation time: 0 hr 15 min 2 sec) 
Heartbeat CPU 0 instructions: 140000003 cycles: 224509316 heartbeat IPC: 0.423873 cumulative IPC: 0.427412 (Simulation time: 0 hr 16 min 20 sec) 
Heartbeat CPU 0 instructions: 150000000 cycles: 247707532 heartbeat IPC: 0.431067 cumulative IPC: 0.427775 (Simulation time: 0 hr 17 min 36 sec) 
*** Reached end of trace for Core: 0 Repeating trace: traces/spec2k17/srv_10.champsimtrace.xz
Heartbeat CPU 0 instructions: 160000002 cycles: 271010527 heartbeat IPC: 0.429129 cumulative IPC: 0.427898 (Simulation time: 0 hr 18 min 53 sec) 
Heartbeat CPU 0 instructions: 170000000 cycles: 294435603 heartbeat IPC: 0.426893 cumulative IPC: 0.427814 (Simulation time: 0 hr 20 min 3 sec) 
Heartbeat CPU 0 instructions: 180000000 cycles: 317663709 heartbeat IPC: 0.430513 cumulative IPC: 0.42802 (Simulation time: 0 hr 21 min 13 sec) 
*** Reached end of trace for Core: 0 Repeating trace: traces/spec2k17/srv_10.champsimtrace.xz
Heartbeat CPU 0 instructions: 190000000 cycles: 340989797 heartbeat IPC: 0.428705 cumulative IPC: 0.428069 (Simulation time: 0 hr 22 min 29 sec) 
Heartbeat CPU 0 instructions: 200000001 cycles: 364390250 heartbeat IPC: 0.427342 cumulative IPC: 0.42802 (Simulation time: 0 hr 23 min 47 sec) 
Heartbeat CPU 0 instructions: 210000001 cycles: 387882515 heartbeat IPC: 0.425672 cumulative IPC: 0.427873 (Simulation time: 0 hr 25 min 2 sec) 
*** Reached end of trace for Core: 0 Repeating trace: traces/spec2k17/srv_10.champsimtrace.xz
Heartbeat CPU 0 instructions: 220000000 cycles: 411118440 heartbeat IPC: 0.430368 cumulative IPC: 0.428019 (Simulation time: 0 hr 26 min 19 sec) 
Heartbeat CPU 0 instructions: 230000000 cycles: 434502487 heartbeat IPC: 0.427642 cumulative IPC: 0.427998 (Simulation time: 0 hr 27 min 31 sec) 
Heartbeat CPU 0 instructions: 240000000 cycles: 457578290 heartbeat IPC: 0.433354 cumulative IPC: 0.428277 (Simulation time: 0 hr 28 min 40 sec) 
*** Reached end of trace for Core: 0 Repeating trace: traces/spec2k17/srv_10.champsimtrace.xz
Heartbeat CPU 0 instructions: 250000001 cycles: 480923058 heartbeat IPC: 0.428362 cumulative IPC: 0.428281 (Simulation time: 0 hr 29 min 58 sec) 
Finished CPU 0 instructions: 200000000 cycles: 466983370 cumulative IPC: 0.428281 (Simulation time: 0 hr 29 min 58 sec) 

ChampSim completed all CPUs

Region of Interest Statistics

CPU 0 cumulative IPC: 0.428281 instructions: 200000000 cycles: 466983370
ITLB TOTAL     ACCESS:   31520662  HIT:   30726324  MISS:     794338  HIT %:    97.4799  MISS %:    2.52005   MPKI: 3.97169
ITLB LOAD TRANSLATION ACCESS:   31520662  HIT:   30726324  MISS:     794338  HIT %:    97.4799  MISS %:    2.52005   MPKI: 3.97169
ITLB PREFETCH  REQUESTED:          0  ISSUED:          0  USEFUL:          0  USELESS:          0
ITLB USEFUL LOAD PREFETCHES:          0 PREFETCH ISSUED TO LOWER LEVEL:          0  ACCURACY: -nan
ITLB TIMELY PREFETCHES:          0 LATE PREFETCHES: 0 DROPPED PREFETCHES: 0
ITLB PREFETCHES SAME FILL-ORIGIN LEVEL: 0 DIFFERENT FILL-ORIGIN LEVEL: 0
ITLB AVERAGE MISS LATENCY: 15.9858 cycles
ITLB RQ	ACCESS:   38423407	FORWARD:          0	MERGED:    6711528	TO_CACHE:   31711879

DTLB TOTAL     ACCESS:   37383970  HIT:   34868997  MISS:    2514973  HIT %:    93.2726  MISS %:    6.72741   MPKI: 12.5749
DTLB LOAD TRANSLATION ACCESS:   37383970  HIT:   34868997  MISS:    2514973  HIT %:    93.2726  MISS %:    6.72741   MPKI: 12.5749
DTLB PREFETCH  REQUESTED:          0  ISSUED:          0  USEFUL:          0  USELESS:          0
DTLB USEFUL LOAD PREFETCHES:          0 PREFETCH ISSUED TO LOWER LEVEL:          0  ACCURACY: -nan
DTLB TIMELY PREFETCHES:          0 LATE PREFETCHES: 0 DROPPED PREFETCHES: 0
DTLB PREFETCHES SAME FILL-ORIGIN LEVEL: 0 DIFFERENT FILL-ORIGIN LEVEL: 0
DTLB AVERAGE MISS LATENCY: 13.9818 cycles
DTLB RQ	ACCESS:   47829268	FORWARD:          0	MERGED:   10294381	TO_CACHE:   37534887

STLB TOTAL     ACCESS:    4346504  HIT:    3869813  MISS:     476691  HIT %:    89.0328  MISS %:    10.9672   MPKI: 2.38346
STLB LOAD TRANSLATION ACCESS:    3309311  HIT:    2840225  MISS:     469086  HIT %:    85.8253  MISS %:    14.1747   MPKI: 2.34543
STLB TRANSLATION FROM L1D PREFETCHER ACCESS:    1037193  HIT:    1029588  MISS:       7605  HIT %:    99.2668  MISS %:   0.733229   MPKI: 0.038025
STLB PREFETCH  REQUESTED:          0  ISSUED:          0  USEFUL:       5671  USELESS:       1933
STLB USEFUL LOAD PREFETCHES:       5671 PREFETCH ISSUED TO LOWER LEVEL:          0  ACCURACY: inf
STLB TIMELY PREFETCHES:       5671 LATE PREFETCHES: 329 DROPPED PREFETCHES: 339020
STLB PREFETCHES SAME FILL-ORIGIN LEVEL: 0 DIFFERENT FILL-ORIGIN LEVEL: 0
STLB AVERAGE MISS LATENCY: 39.4583 cycles
STLB RQ	ACCESS:    5063333	FORWARD:          0	MERGED:     343141	TO_CACHE:    4720192

STLB Hit, L1D data hit: 0
STLB Hit, L2C data hit: 0
STLB Hit, LLC data hit: 0
STLB Hit, LLC data miss: 0
STLB STLB hints to L2: 0
L1D TOTAL     ACCESS:   48515918  HIT:   45920833  MISS:    2595085  HIT %:    94.6511  MISS %:    5.34894   MPKI: 12.9754
L1D LOAD      ACCESS:   27748958  HIT:   25587170  MISS:    2161788  HIT %:    92.2095  MISS %:    7.79052   MPKI: 10.8089
L1D RFO       ACCESS:   19494251  HIT:   19133028  MISS:     361223  HIT %:     98.147  MISS %:    1.85297   MPKI: 1.80611
L1D PREFETCH  ACCESS:    1272709  HIT:    1200635  MISS:      72074  HIT %:     94.337  MISS %:    5.66304   MPKI: 0.36037
AGUS PREFETCH L1 MISS: 0
L1D PREFETCH  REQUESTED:    7534111  ISSUED:    6260830  USEFUL:      18053  USELESS:      54052
L1D USEFUL LOAD PREFETCHES:      18053 PREFETCH ISSUED TO LOWER LEVEL:      73923  ACCURACY: 24.4214
L1D TIMELY PREFETCHES:      18053 LATE PREFETCHES: 1800 DROPPED PREFETCHES: 469814
L1D PREFETCHES SAME FILL-ORIGIN LEVEL: 73923 DIFFERENT FILL-ORIGIN LEVEL: 0
L1D AVERAGE MISS LATENCY: 177756 cycles
L1D RQ	ACCESS:   42018099	FORWARD:          0	MERGED:   13910163	TO_CACHE:   27894184
L1D WQ	ACCESS:   20227584	FORWARD:     218208	MERGED:     292500	TO_CACHE:   19935084
L1D PQ	ACCESS:    4506808	FORWARD:          0	MERGED:    2748330	TO_CACHE:    1754022

L1D UNIQUE REGIONS ACCESSED: 0
L1D REGIONS CONFLICTS: 0
L1D Cross Page Prefetch Requests: 7628762
L1D Same Page Prefetch Requests: 5609741
L1D ROI Sum of L1D PQ occupancy: 61730393
L1D PREFETCHES PUSHED FROM L2C: 0
L1I TOTAL     ACCESS:   36764835  HIT:   31721404  MISS:    5043431  HIT %:    86.2819  MISS %:    13.7181   MPKI: 25.2172
L1I LOAD      ACCESS:   36764835  HIT:   31721404  MISS:    5043431  HIT %:    86.2819  MISS %:    13.7181   MPKI: 25.2172
L1I PREFETCH  REQUESTED:          0  ISSUED:          0  USEFUL:          0  USELESS:          0
L1I USEFUL LOAD PREFETCHES:          0 PREFETCH ISSUED TO LOWER LEVEL:          0  ACCURACY: -nan
L1I TIMELY PREFETCHES:          0 LATE PREFETCHES: 0 DROPPED PREFETCHES: 0
L1I PREFETCHES SAME FILL-ORIGIN LEVEL: 0 DIFFERENT FILL-ORIGIN LEVEL: 0
L1I AVERAGE MISS LATENCY: 27.9161 cycles
L1I RQ	ACCESS:   57063594	FORWARD:          0	MERGED:   18640187	TO_CACHE:   38423407

BTB TOTAL     ACCESS:   22616971  HIT:   17672573  MISS:    4944398  HIT %:    78.1385  MISS %:    21.8615   MPKI: 24.722
BTB BRANCH_DIRECT_JUMP	ACCESS:    1742577  HIT:    1446257  MISS:     296320
BTB BRANCH_INDIRECT	ACCESS:    9604965  HIT:    7286777  MISS:    2318188
BTB BRANCH_CONDITIONAL	ACCESS:    4679517  HIT:    4209943  MISS:     469574
BTB BRANCH_DIRECT_CALL	ACCESS:    2572130  HIT:    1992728  MISS:     579402
BTB BRANCH_INDIRECT_CALL	ACCESS:     719271  HIT:     661890  MISS:      57381
BTB BRANCH_RETURN	ACCESS:    3298511  HIT:    2074978  MISS:    1223533
BTB BRANCH_OTHER ACCESS:          0  HIT:          0  MISS:          0

L2C TOTAL     ACCESS:    9662802  HIT:    5746370  MISS:    3916432  HIT %:     59.469  MISS %:     40.531   MPKI: 19.5822
L2C LOAD      ACCESS:    7203218  HIT:    3808045  MISS:    3395173  HIT %:    52.8659  MISS %:    47.1341   MPKI: 16.9759
L2C DATA LOAD MPKI: 5.62088
L2C INSTRUCTION LOAD MPKI: 11.355
L2C RFO       ACCESS:     361174  HIT:     181110  MISS:     180064  HIT %:    50.1448  MISS %:    49.8552   MPKI: 0.90032
L2C PREFETCH  ACCESS:      73923  HIT:      31344  MISS:      42579  HIT %:    42.4009  MISS %:    57.5991   MPKI: 0.212895
AGUS PREFETCH L1 MISS: 0
L2C DATA PREFETCH MPKI: 0.212895
L2C INSTRUCTION PREFETCH MPKI: 0
L2C WRITEBACK ACCESS:    1014959  HIT:     959011  MISS:      55948  HIT %:    94.4877  MISS %:    5.51234   MPKI: 0.27974
L2C LOAD TRANSLATION ACCESS:     594973  HIT:     381238  MISS:     213735  HIT %:    64.0765  MISS %:    35.9235   MPKI: 1.06868
L2C TRANSLATION FROM L1D PREFETCHER ACCESS:     414555  HIT:     385622  MISS:      28933  HIT %:    93.0207  MISS %:    6.97929   MPKI: 0.144665
L2C PREFETCH  REQUESTED:          0  ISSUED:          0  USEFUL:      15828  USELESS:      55768
L2C USEFUL LOAD PREFETCHES:      15828 PREFETCH ISSUED TO LOWER LEVEL:      42579  ACCURACY: 37.1733
L2C TIMELY PREFETCHES:      15828 LATE PREFETCHES: 0 DROPPED PREFETCHES: 0
L2C PREFETCHES SAME FILL-ORIGIN LEVEL: 0 DIFFERENT FILL-ORIGIN LEVEL: 0
L2C AVERAGE MISS LATENCY: 39.2996 cycles
L2C RQ	ACCESS:    8574121	FORWARD:          0	MERGED:          0	TO_CACHE:    8573920
L2C WQ	ACCESS:    1014959	FORWARD:        201	MERGED:          0	TO_CACHE:    1014959
L2C PQ	ACCESS:      73923	FORWARD:          0	MERGED:          0	TO_CACHE:      73923

L2C Instructions Evicting Data 809192
L2C Translations Evicting Data 90001
L2C Data Evicting Data 482649
L2C Instructions Evicting Instructions 1323469
L2C Translations Evicting Instructions 138169
L2C Data Evicting Instructions 777929
L2C Instructions Evicting Translations 138336
L2C Translations Evicting Translations 14498
L2C Data Evicting Translations 86241
L2C Dense regions hint from L2: 0
PSCL5 TOTAL     ACCESS:     718812  HIT:     718812  MISS:          0  HIT %:        100  MISS %:          0   MPKI: 0
PSCL5 LOAD TRANSLATION ACCESS:     468757  HIT:     468757  MISS:          0  HIT %:        100  MISS %:          0   MPKI: 0
PSCL5 TRANSLATION FROM L1D PREFETCHER ACCESS:     250055  HIT:     250055  MISS:          0  HIT %:        100  MISS %:          0   MPKI: 0
PSCL5 PREFETCH  REQUESTED:          0  ISSUED:          0  USEFUL:          0  USELESS:          0
PSCL5 USEFUL LOAD PREFETCHES:          0 PREFETCH ISSUED TO LOWER LEVEL:          0  ACCURACY: -nan
PSCL5 TIMELY PREFETCHES:          0 LATE PREFETCHES: 0 DROPPED PREFETCHES: 0
PSCL5 PREFETCHES SAME FILL-ORIGIN LEVEL: 0 DIFFERENT FILL-ORIGIN LEVEL: 0

PSCL4 TOTAL     ACCESS:     650131  HIT:     648962  MISS:       1169  HIT %:    99.8202  MISS %:    0.17981   MPKI: 0.005845
PSCL4 LOAD TRANSLATION ACCESS:     439241  HIT:     438072  MISS:       1169  HIT %:    99.7339  MISS %:   0.266141   MPKI: 0.005845
PSCL4 TRANSLATION FROM L1D PREFETCHER ACCESS:     210890  HIT:     210890  MISS:          0  HIT %:        100  MISS %:          0   MPKI: 0
PSCL4 PREFETCH  REQUESTED:          0  ISSUED:          0  USEFUL:          0  USELESS:          0
PSCL4 USEFUL LOAD PREFETCHES:          0 PREFETCH ISSUED TO LOWER LEVEL:          0  ACCURACY: -nan
PSCL4 TIMELY PREFETCHES:          0 LATE PREFETCHES: 0 DROPPED PREFETCHES: 0
PSCL4 PREFETCHES SAME FILL-ORIGIN LEVEL: 0 DIFFERENT FILL-ORIGIN LEVEL: 0

PSCL3 TOTAL     ACCESS:     595874  HIT:     592056  MISS:       3818  HIT %:    99.3593  MISS %:   0.640739   MPKI: 0.01909
PSCL3 LOAD TRANSLATION ACCESS:     465300  HIT:     461482  MISS:       3818  HIT %:    99.1795  MISS %:   0.820546   MPKI: 0.01909
PSCL3 TRANSLATION FROM L1D PREFETCHER ACCESS:     130574  HIT:     130574  MISS:          0  HIT %:        100  MISS %:          0   MPKI: 0
PSCL3 PREFETCH  REQUESTED:          0  ISSUED:          0  USEFUL:          0  USELESS:          0
PSCL3 USEFUL LOAD PREFETCHES:          0 PREFETCH ISSUED TO LOWER LEVEL:          0  ACCURACY: -nan
PSCL3 TIMELY PREFETCHES:          0 LATE PREFETCHES: 0 DROPPED PREFETCHES: 0
PSCL3 PREFETCHES SAME FILL-ORIGIN LEVEL: 0 DIFFERENT FILL-ORIGIN LEVEL: 0

PSCL2 TOTAL     ACCESS:     500164  HIT:     376269  MISS:     123895  HIT %:    75.2291  MISS %:    24.7709   MPKI: 0.619475
PSCL2 LOAD TRANSLATION ACCESS:     471422  HIT:     347527  MISS:     123895  HIT %:    73.7189  MISS %:    26.2811   MPKI: 0.619475
PSCL2 TRANSLATION FROM L1D PREFETCHER ACCESS:      28742  HIT:      28742  MISS:          0  HIT %:        100  MISS %:          0   MPKI: 0
PSCL2 PREFETCH  REQUESTED:          0  ISSUED:          0  USEFUL:          0  USELESS:          0
PSCL2 USEFUL LOAD PREFETCHES:          0 PREFETCH ISSUED TO LOWER LEVEL:          0  ACCURACY: -nan
PSCL2 TIMELY PREFETCHES:          0 LATE PREFETCHES: 0 DROPPED PREFETCHES: 0
PSCL2 PREFETCHES SAME FILL-ORIGIN LEVEL: 0 DIFFERENT FILL-ORIGIN LEVEL: 0

LLC TOTAL     ACCESS:    4343741  HIT:    4102220  MISS:     241521  HIT %:    94.4398  MISS %:    5.56021   MPKI: 1.20761
LLC LOAD      ACCESS:    3395173  HIT:    3211674  MISS:     183499  HIT %:    94.5953  MISS %:     5.4047   MPKI: 0.917495
LLC RFO       ACCESS:     180064  HIT:     138540  MISS:      41524  HIT %:    76.9393  MISS %:    23.0607   MPKI: 0.20762
LLC PREFETCH  ACCESS:      42579  HIT:      32017  MISS:      10562  HIT %:    75.1943  MISS %:    24.8057   MPKI: 0.05281
AGUS PREFETCH L1 MISS: 0
LLC WRITEBACK ACCESS:     483257  HIT:     481725  MISS:       1532  HIT %:     99.683  MISS %:   0.317016   MPKI: 0.00766
LLC LOAD TRANSLATION ACCESS:     213735  HIT:     210890  MISS:       2845  HIT %:    98.6689  MISS %:    1.33109   MPKI: 0.014225
LLC TRANSLATION FROM L1D PREFETCHER ACCESS:      28933  HIT:      27374  MISS:       1559  HIT %:    94.6117  MISS %:    5.38831   MPKI: 0.007795
LLC PREFETCH  REQUESTED:          0  ISSUED:          0  USEFUL:       4237  USELESS:       8391
LLC USEFUL LOAD PREFETCHES:       4237 PREFETCH ISSUED TO LOWER LEVEL:      10562  ACCURACY: 40.1155
LLC TIMELY PREFETCHES:       4237 LATE PREFETCHES: 0 DROPPED PREFETCHES: 0
LLC PREFETCHES SAME FILL-ORIGIN LEVEL: 0 DIFFERENT FILL-ORIGIN LEVEL: 0
LLC AVERAGE MISS LATENCY: 157.74 cycles
LLC RQ	ACCESS:    3817905	FORWARD:          0	MERGED:          0	TO_CACHE:    3817905
LLC WQ	ACCESS:     483257	FORWARD:          0	MERGED:          0	TO_CACHE:     483257
LLC PQ	ACCESS:      42579	FORWARD:          0	MERGED:          0	TO_CACHE:      42579

LLC Dense regions hint to LLC: 0

RAW hits: 2705343
Loads Generated: 44723442
Loads sent to L1D: 42018099
Stores Generated: 20227563
Stores sent to L1D: 20227584
Major fault: 0 Minor fault: 4015
Allocated PAGES: 4015

DRAM Statistics
 CHANNEL 0
 RQ ROW_BUFFER_HIT:      30573  ROW_BUFFER_MISS:     209416
 DBUS_CONGESTED:         73
 WQ ROW_BUFFER_HIT:      18226  ROW_BUFFER_MISS:     178601  FULL:          0

 AVG_CONGESTED_CYCLE: 4
 All warmup complete: 2
Channel 0 Bank busy for read cycles: 0
Channel 0 Bank busy for write cycles: 0
Channel 0
Rank 0
0banks busy for read cycles: 417174574
0banks busy for write cycles: 123230
1banks busy for read cycles: 23325692
1banks busy for write cycles: 16782455
2banks busy for read cycles: 3034832
2banks busy for write cycles: 3518231
3banks busy for read cycles: 479300
3banks busy for write cycles: 919341
4banks busy for read cycles: 221295
4banks busy for write cycles: 388766
5banks busy for read cycles: 82211
5banks busy for write cycles: 246608
6banks busy for read cycles: 43942
6banks busy for write cycles: 173619
7banks busy for read cycles: 33857
7banks busy for write cycles: 179103
8banks busy for read cycles: 38913
8banks busy for write cycles: 217402

CPU 0 Branch Prediction Accuracy: 99.8374% MPKI: 0.292835 Average ROB Occupancy at Mispredict: 37.6181
Branch types
NOT_BRANCH: 163982148 81.9911%
BRANCH_DIRECT_JUMP: 1742577 0.871289%
BRANCH_INDIRECT: 9604965 4.80248%
BRANCH_CONDITIONAL: 18080053 9.04003%
BRANCH_DIRECT_CALL: 2572130 1.28607%
BRANCH_INDIRECT_CALL: 719271 0.359635%
BRANCH_RETURN: 3298511 1.64926%
BRANCH_OTHER: 0 0%

DRAM PAGES: 1048576
Allocated PAGES: 4015
