
*** ChampSim Multicore Out-of-Order Simulator ***

Warmup Instructions: 50000000
Simulation Instructions: 200000000
Number of CPUs: 1
LLC sets: 2048
LLC ways: 16
Off-chip DRAM Size: 4096 MB Channels: 1 Width: 64-bit Data Rate: 6400 MT/s
CPU 0 runs traces/spec2k17/srv_5.champsimtrace.xz
.xz
BTB has LRU replacement policy
ITLB has LRU replacement policy
DTLB has LRU replacement policy
STLB has LRU replacement policy
L1I has LRU replacement policy
L1D has LRU replacement policy
Initialize SRRIP state for L2C
Initialize DRRIP state for LLC
Heartbeat CPU 0 instructions: 10000002 cycles: 2777632 heartbeat IPC: 3.60019 cumulative IPC: 3.60019 (Simulation time: 0 hr 1 min 2 sec) 
Heartbeat CPU 0 instructions: 20000003 cycles: 5544941 heartbeat IPC: 3.61362 cumulative IPC: 3.60689 (Simulation time: 0 hr 2 min 8 sec) 
Heartbeat CPU 0 instructions: 30000002 cycles: 8315916 heartbeat IPC: 3.60884 cumulative IPC: 3.60754 (Simulation time: 0 hr 3 min 6 sec) 
*** Reached end of trace for Core: 0 Repeating trace: traces/spec2k17/srv_5.champsimtrace.xz
Heartbeat CPU 0 instructions: 40000002 cycles: 11087656 heartbeat IPC: 3.60784 cumulative IPC: 3.60762 (Simulation time: 0 hr 3 min 57 sec) 
Heartbeat CPU 0 instructions: 50000002 cycles: 13854341 heartbeat IPC: 3.61443 cumulative IPC: 3.60898 (Simulation time: 0 hr 4 min 47 sec) 

Warmup complete CPU 0 instructions: 50000002 cycles: 13854341 (Simulation time: 0 hr 4 min 47 sec) 

Heartbeat CPU 0 instructions: 60000001 cycles: 35850488 heartbeat IPC: 0.454625 cumulative IPC: 0.454625 (Simulation time: 0 hr 5 min 48 sec) 
*** Reached end of trace for Core: 0 Repeating trace: traces/spec2k17/srv_5.champsimtrace.xz
Heartbeat CPU 0 instructions: 70000003 cycles: 57838904 heartbeat IPC: 0.454785 cumulative IPC: 0.454705 (Simulation time: 0 hr 6 min 37 sec) 
Heartbeat CPU 0 instructions: 80000001 cycles: 79177689 heartbeat IPC: 0.46863 cumulative IPC: 0.459254 (Simulation time: 0 hr 7 min 25 sec) 
Heartbeat CPU 0 instructions: 90000002 cycles: 101252882 heartbeat IPC: 0.452997 cumulative IPC: 0.457674 (Simulation time: 0 hr 8 min 14 sec) 
*** Reached end of trace for Core: 0 Repeating trace: traces/spec2k17/srv_5.champsimtrace.xz
Heartbeat CPU 0 instructions: 100000001 cycles: 122843715 heartbeat IPC: 0.463159 cumulative IPC: 0.45876 (Simulation time: 0 hr 9 min 1 sec) 
Heartbeat CPU 0 instructions: 110000000 cycles: 144430310 heartbeat IPC: 0.46325 cumulative IPC: 0.459503 (Simulation time: 0 hr 9 min 48 sec) 
Heartbeat CPU 0 instructions: 120000001 cycles: 166356683 heartbeat IPC: 0.456072 cumulative IPC: 0.459009 (Simulation time: 0 hr 10 min 35 sec) 
*** Reached end of trace for Core: 0 Repeating trace: traces/spec2k17/srv_5.champsimtrace.xz
Heartbeat CPU 0 instructions: 130000001 cycles: 187864093 heartbeat IPC: 0.464956 cumulative IPC: 0.459744 (Simulation time: 0 hr 11 min 23 sec) 
Heartbeat CPU 0 instructions: 140000003 cycles: 209437420 heartbeat IPC: 0.463535 cumulative IPC: 0.460163 (Simulation time: 0 hr 12 min 10 sec) 
Heartbeat CPU 0 instructions: 150000000 cycles: 231167545 heartbeat IPC: 0.460191 cumulative IPC: 0.460165 (Simulation time: 0 hr 12 min 58 sec) 
*** Reached end of trace for Core: 0 Repeating trace: traces/spec2k17/srv_5.champsimtrace.xz
Heartbeat CPU 0 instructions: 160000000 cycles: 252631534 heartbeat IPC: 0.465897 cumulative IPC: 0.460681 (Simulation time: 0 hr 13 min 46 sec) 
Heartbeat CPU 0 instructions: 170000002 cycles: 274499150 heartbeat IPC: 0.457297 cumulative IPC: 0.460397 (Simulation time: 0 hr 14 min 33 sec) 
Heartbeat CPU 0 instructions: 180000000 cycles: 296095393 heartbeat IPC: 0.463043 cumulative IPC: 0.460599 (Simulation time: 0 hr 15 min 20 sec) 
*** Reached end of trace for Core: 0 Repeating trace: traces/spec2k17/srv_5.champsimtrace.xz
Heartbeat CPU 0 instructions: 190000000 cycles: 317607397 heartbeat IPC: 0.464857 cumulative IPC: 0.460901 (Simulation time: 0 hr 16 min 8 sec) 
Heartbeat CPU 0 instructions: 200000003 cycles: 339562165 heartbeat IPC: 0.455482 cumulative IPC: 0.460535 (Simulation time: 0 hr 16 min 55 sec) 
Heartbeat CPU 0 instructions: 210000000 cycles: 361013296 heartbeat IPC: 0.466176 cumulative IPC: 0.460884 (Simulation time: 0 hr 17 min 42 sec) 
*** Reached end of trace for Core: 0 Repeating trace: traces/spec2k17/srv_5.champsimtrace.xz
Heartbeat CPU 0 instructions: 220000000 cycles: 382593007 heartbeat IPC: 0.463398 cumulative IPC: 0.461031 (Simulation time: 0 hr 18 min 29 sec) 
Heartbeat CPU 0 instructions: 230000003 cycles: 404617300 heartbeat IPC: 0.454044 cumulative IPC: 0.460637 (Simulation time: 0 hr 19 min 16 sec) 
Heartbeat CPU 0 instructions: 240000002 cycles: 426097811 heartbeat IPC: 0.465538 cumulative IPC: 0.460893 (Simulation time: 0 hr 20 min 2 sec) 
*** Reached end of trace for Core: 0 Repeating trace: traces/spec2k17/srv_5.champsimtrace.xz
Heartbeat CPU 0 instructions: 250000001 cycles: 447674182 heartbeat IPC: 0.46347 cumulative IPC: 0.461021 (Simulation time: 0 hr 20 min 48 sec) 
Finished CPU 0 instructions: 200000000 cycles: 433819842 cumulative IPC: 0.461021 (Simulation time: 0 hr 20 min 48 sec) 

ChampSim completed all CPUs

Region of Interest Statistics

CPU 0 cumulative IPC: 0.461021 instructions: 200000000 cycles: 433819842
ITLB TOTAL     ACCESS:   31215994  HIT:   30408223  MISS:     807771  HIT %:    97.4123  MISS %:    2.58768   MPKI: 4.03885
ITLB LOAD TRANSLATION ACCESS:   31215994  HIT:   30408223  MISS:     807771  HIT %:    97.4123  MISS %:    2.58768   MPKI: 4.03885
ITLB PREFETCH  REQUESTED:          0  ISSUED:          0  USEFUL:          0  USELESS:          0
ITLB USEFUL LOAD PREFETCHES:          0 PREFETCH ISSUED TO LOWER LEVEL:          0  ACCURACY: -nan
ITLB TIMELY PREFETCHES:          0 LATE PREFETCHES: 0 DROPPED PREFETCHES: 0
ITLB PREFETCHES SAME FILL-ORIGIN LEVEL: 0 DIFFERENT FILL-ORIGIN LEVEL: 0
ITLB AVERAGE MISS LATENCY: 13.5633 cycles
ITLB RQ	ACCESS:   38119013	FORWARD:          0	MERGED:    6699171	TO_CACHE:   31419842

DTLB TOTAL     ACCESS:   36986481  HIT:   34373331  MISS:    2613150  HIT %:    92.9349  MISS %:    7.06515   MPKI: 13.0657
DTLB LOAD TRANSLATION ACCESS:   36986481  HIT:   34373331  MISS:    2613150  HIT %:    92.9349  MISS %:    7.06515   MPKI: 13.0657
DTLB PREFETCH  REQUESTED:          0  ISSUED:          0  USEFUL:          0  USELESS:          0
DTLB USEFUL LOAD PREFETCHES:          0 PREFETCH ISSUED TO LOWER LEVEL:          0  ACCURACY: -nan
DTLB TIMELY PREFETCHES:          0 LATE PREFETCHES: 0 DROPPED PREFETCHES: 0
DTLB PREFETCHES SAME FILL-ORIGIN LEVEL: 0 DIFFERENT FILL-ORIGIN LEVEL: 0
DTLB AVERAGE MISS LATENCY: 13.1312 cycles
DTLB RQ	ACCESS:   47434991	FORWARD:          0	MERGED:   10301408	TO_CACHE:   37133583

STLB TOTAL     ACCESS:    4523914  HIT:    4193209  MISS:     330705  HIT %:    92.6898  MISS %:    7.31015   MPKI: 1.65352
STLB LOAD TRANSLATION ACCESS:    3420921  HIT:    3096695  MISS:     324226  HIT %:    90.5223  MISS %:    9.47774   MPKI: 1.62113
STLB TRANSLATION FROM L1D PREFETCHER ACCESS:    1102993  HIT:    1096514  MISS:       6479  HIT %:    99.4126  MISS %:   0.587402   MPKI: 0.032395
STLB PREFETCH  REQUESTED:          0  ISSUED:          0  USEFUL:       5122  USELESS:       1363
STLB USEFUL LOAD PREFETCHES:       5122 PREFETCH ISSUED TO LOWER LEVEL:          0  ACCURACY: inf
STLB TIMELY PREFETCHES:       5122 LATE PREFETCHES: 80 DROPPED PREFETCHES: 388850
STLB PREFETCHES SAME FILL-ORIGIN LEVEL: 0 DIFFERENT FILL-ORIGIN LEVEL: 0
STLB AVERAGE MISS LATENCY: 46.2147 cycles
STLB RQ	ACCESS:    5353018	FORWARD:          0	MERGED:     409875	TO_CACHE:    4943143

STLB Hit, L1D data hit: 0
STLB Hit, L2C data hit: 0
STLB Hit, LLC data hit: 0
STLB Hit, LLC data miss: 0
STLB STLB hints to L2: 0
L1D TOTAL     ACCESS:   48314640  HIT:   45790374  MISS:    2524266  HIT %:    94.7754  MISS %:    5.22464   MPKI: 12.6213
L1D LOAD      ACCESS:   27426679  HIT:   25303850  MISS:    2122829  HIT %:      92.26  MISS %:    7.74001   MPKI: 10.6141
L1D RFO       ACCESS:   19470892  HIT:   19138220  MISS:     332672  HIT %:    98.2914  MISS %:    1.70856   MPKI: 1.66336
L1D PREFETCH  ACCESS:    1417069  HIT:    1348304  MISS:      68765  HIT %:    95.1474  MISS %:    4.85262   MPKI: 0.343825
AGUS PREFETCH L1 MISS: 0
L1D PREFETCH  REQUESTED:    8681923  ISSUED:    7608987  USEFUL:      18400  USELESS:      50398
L1D USEFUL LOAD PREFETCHES:      18400 PREFETCH ISSUED TO LOWER LEVEL:      70496  ACCURACY: 26.1008
L1D TIMELY PREFETCHES:      18400 LATE PREFETCHES: 1728 DROPPED PREFETCHES: 496906
L1D PREFETCHES SAME FILL-ORIGIN LEVEL: 70496 DIFFERENT FILL-ORIGIN LEVEL: 0
L1D AVERAGE MISS LATENCY: 160100 cycles
L1D RQ	ACCESS:   41963481	FORWARD:          0	MERGED:   14189485	TO_CACHE:   27559250
L1D WQ	ACCESS:   20207881	FORWARD:     218198	MERGED:     332140	TO_CACHE:   19875741
L1D PQ	ACCESS:    5676890	FORWARD:          0	MERGED:    3741341	TO_CACHE:    1932097

L1D UNIQUE REGIONS ACCESSED: 0
L1D REGIONS CONFLICTS: 0
L1D Cross Page Prefetch Requests: 8575317
L1D Same Page Prefetch Requests: 7509372
L1D ROI Sum of L1D PQ occupancy: 56453584
L1D PREFETCHES PUSHED FROM L2C: 0
L1I TOTAL     ACCESS:   36284872  HIT:   31133416  MISS:    5151456  HIT %:    85.8027  MISS %:    14.1973   MPKI: 25.7573
L1I LOAD      ACCESS:   36284872  HIT:   31133416  MISS:    5151456  HIT %:    85.8027  MISS %:    14.1973   MPKI: 25.7573
L1I PREFETCH  REQUESTED:          0  ISSUED:          0  USEFUL:          0  USELESS:          0
L1I USEFUL LOAD PREFETCHES:          0 PREFETCH ISSUED TO LOWER LEVEL:          0  ACCURACY: -nan
L1I TIMELY PREFETCHES:          0 LATE PREFETCHES: 0 DROPPED PREFETCHES: 0
L1I PREFETCHES SAME FILL-ORIGIN LEVEL: 0 DIFFERENT FILL-ORIGIN LEVEL: 0
L1I AVERAGE MISS LATENCY: 24.7265 cycles
L1I RQ	ACCESS:   57138795	FORWARD:          0	MERGED:   19019782	TO_CACHE:   38119013

BTB TOTAL     ACCESS:   22212153  HIT:   17957529  MISS:    4254624  HIT %:    80.8455  MISS %:    19.1545   MPKI: 21.2731
BTB BRANCH_DIRECT_JUMP	ACCESS:    1780172  HIT:    1545024  MISS:     235148
BTB BRANCH_INDIRECT	ACCESS:    9535407  HIT:    7469894  MISS:    2065513
BTB BRANCH_CONDITIONAL	ACCESS:    4548641  HIT:    4163963  MISS:     384678
BTB BRANCH_DIRECT_CALL	ACCESS:    2494547  HIT:    2037677  MISS:     456870
BTB BRANCH_INDIRECT_CALL	ACCESS:     678804  HIT:     637539  MISS:      41265
BTB BRANCH_RETURN	ACCESS:    3174582  HIT:    2103432  MISS:    1071150
BTB BRANCH_OTHER ACCESS:          0  HIT:          0  MISS:          0

L2C TOTAL     ACCESS:    9571474  HIT:    6424098  MISS:    3147376  HIT %:    67.1171  MISS %:    32.8829   MPKI: 15.7369
L2C LOAD      ACCESS:    7272430  HIT:    4549782  MISS:    2722648  HIT %:    62.5621  MISS %:    37.4379   MPKI: 13.6132
L2C DATA LOAD MPKI: 4.6524
L2C INSTRUCTION LOAD MPKI: 8.96084
L2C RFO       ACCESS:     332663  HIT:     191797  MISS:     140866  HIT %:     57.655  MISS %:     42.345   MPKI: 0.70433
L2C PREFETCH  ACCESS:      70496  HIT:      32279  MISS:      38217  HIT %:    45.7884  MISS %:    54.2116   MPKI: 0.191085
AGUS PREFETCH L1 MISS: 0
L2C DATA PREFETCH MPKI: 0.191085
L2C INSTRUCTION PREFETCH MPKI: 0
L2C WRITEBACK ACCESS:    1019338  HIT:     965848  MISS:      53490  HIT %:    94.7525  MISS %:    5.24752   MPKI: 0.26745
L2C LOAD TRANSLATION ACCESS:     427225  HIT:     259487  MISS:     167738  HIT %:    60.7378  MISS %:    39.2622   MPKI: 0.83869
L2C TRANSLATION FROM L1D PREFETCHER ACCESS:     449322  HIT:     424905  MISS:      24417  HIT %:    94.5658  MISS %:    5.43419   MPKI: 0.122085
L2C PREFETCH  REQUESTED:          0  ISSUED:          0  USEFUL:      12332  USELESS:      50425
L2C USEFUL LOAD PREFETCHES:      12332 PREFETCH ISSUED TO LOWER LEVEL:      38217  ACCURACY: 32.2684
L2C TIMELY PREFETCHES:      12332 LATE PREFETCHES: 0 DROPPED PREFETCHES: 0
L2C PREFETCHES SAME FILL-ORIGIN LEVEL: 0 DIFFERENT FILL-ORIGIN LEVEL: 0
L2C AVERAGE MISS LATENCY: 43.9407 cycles
L2C RQ	ACCESS:    8481774	FORWARD:          0	MERGED:          0	TO_CACHE:    8481640
L2C WQ	ACCESS:    1019338	FORWARD:        134	MERGED:          0	TO_CACHE:    1019338
L2C PQ	ACCESS:      70496	FORWARD:          0	MERGED:          0	TO_CACHE:      70496

L2C Instructions Evicting Data 652176
L2C Translations Evicting Data 75962
L2C Data Evicting Data 414961
L2C Instructions Evicting Instructions 1035503
L2C Translations Evicting Instructions 104777
L2C Data Evicting Instructions 621597
L2C Instructions Evicting Translations 104489
L2C Translations Evicting Translations 11416
L2C Data Evicting Translations 73005
L2C Dense regions hint from L2: 0
PSCL5 TOTAL     ACCESS:     669245  HIT:     669245  MISS:          0  HIT %:        100  MISS %:          0   MPKI: 0
PSCL5 LOAD TRANSLATION ACCESS:     324146  HIT:     324146  MISS:          0  HIT %:        100  MISS %:          0   MPKI: 0
PSCL5 TRANSLATION FROM L1D PREFETCHER ACCESS:     345099  HIT:     345099  MISS:          0  HIT %:        100  MISS %:          0   MPKI: 0
PSCL5 PREFETCH  REQUESTED:          0  ISSUED:          0  USEFUL:          0  USELESS:          0
PSCL5 USEFUL LOAD PREFETCHES:          0 PREFETCH ISSUED TO LOWER LEVEL:          0  ACCURACY: -nan
PSCL5 TIMELY PREFETCHES:          0 LATE PREFETCHES: 0 DROPPED PREFETCHES: 0
PSCL5 PREFETCHES SAME FILL-ORIGIN LEVEL: 0 DIFFERENT FILL-ORIGIN LEVEL: 0

PSCL4 TOTAL     ACCESS:     559591  HIT:     559038  MISS:        553  HIT %:    99.9012  MISS %:  0.0988222   MPKI: 0.002765
PSCL4 LOAD TRANSLATION ACCESS:     285305  HIT:     284752  MISS:        553  HIT %:    99.8062  MISS %:   0.193828   MPKI: 0.002765
PSCL4 TRANSLATION FROM L1D PREFETCHER ACCESS:     274286  HIT:     274286  MISS:          0  HIT %:        100  MISS %:          0   MPKI: 0
PSCL4 PREFETCH  REQUESTED:          0  ISSUED:          0  USEFUL:          0  USELESS:          0
PSCL4 USEFUL LOAD PREFETCHES:          0 PREFETCH ISSUED TO LOWER LEVEL:          0  ACCURACY: -nan
PSCL4 TIMELY PREFETCHES:          0 LATE PREFETCHES: 0 DROPPED PREFETCHES: 0
PSCL4 PREFETCHES SAME FILL-ORIGIN LEVEL: 0 DIFFERENT FILL-ORIGIN LEVEL: 0

PSCL3 TOTAL     ACCESS:     570981  HIT:     569322  MISS:       1659  HIT %:    99.7094  MISS %:   0.290553   MPKI: 0.008295
PSCL3 LOAD TRANSLATION ACCESS:     321734  HIT:     320075  MISS:       1659  HIT %:    99.4844  MISS %:   0.515643   MPKI: 0.008295
PSCL3 TRANSLATION FROM L1D PREFETCHER ACCESS:     249247  HIT:     249247  MISS:          0  HIT %:        100  MISS %:          0   MPKI: 0
PSCL3 PREFETCH  REQUESTED:          0  ISSUED:          0  USEFUL:          0  USELESS:          0
PSCL3 USEFUL LOAD PREFETCHES:          0 PREFETCH ISSUED TO LOWER LEVEL:          0  ACCURACY: -nan
PSCL3 TIMELY PREFETCHES:          0 LATE PREFETCHES: 0 DROPPED PREFETCHES: 0
PSCL3 PREFETCHES SAME FILL-ORIGIN LEVEL: 0 DIFFERENT FILL-ORIGIN LEVEL: 0

PSCL2 TOTAL     ACCESS:     354648  HIT:     251190  MISS:     103458  HIT %:     70.828  MISS %:     29.172   MPKI: 0.51729
PSCL2 LOAD TRANSLATION ACCESS:     326737  HIT:     223279  MISS:     103458  HIT %:     68.336  MISS %:     31.664   MPKI: 0.51729
PSCL2 TRANSLATION FROM L1D PREFETCHER ACCESS:      27911  HIT:      27911  MISS:          0  HIT %:        100  MISS %:          0   MPKI: 0
PSCL2 PREFETCH  REQUESTED:          0  ISSUED:          0  USEFUL:          0  USELESS:          0
PSCL2 USEFUL LOAD PREFETCHES:          0 PREFETCH ISSUED TO LOWER LEVEL:          0  ACCURACY: -nan
PSCL2 TIMELY PREFETCHES:          0 LATE PREFETCHES: 0 DROPPED PREFETCHES: 0
PSCL2 PREFETCHES SAME FILL-ORIGIN LEVEL: 0 DIFFERENT FILL-ORIGIN LEVEL: 0

LLC TOTAL     ACCESS:    3517670  HIT:    3218425  MISS:     299245  HIT %:    91.4931  MISS %:    8.50691   MPKI: 1.49622
LLC LOAD      ACCESS:    2722647  HIT:    2496316  MISS:     226331  HIT %:    91.6871  MISS %:     8.3129   MPKI: 1.13166
LLC RFO       ACCESS:     140866  HIT:      95255  MISS:      45611  HIT %:     67.621  MISS %:     32.379   MPKI: 0.228055
LLC PREFETCH  ACCESS:      38217  HIT:      24448  MISS:      13769  HIT %:    63.9715  MISS %:    36.0285   MPKI: 0.068845
AGUS PREFETCH L1 MISS: 0
LLC WRITEBACK ACCESS:     423785  HIT:     422066  MISS:       1719  HIT %:    99.5944  MISS %:    0.40563   MPKI: 0.008595
LLC LOAD TRANSLATION ACCESS:     167738  HIT:     157130  MISS:      10608  HIT %:    93.6759  MISS %:    6.32415   MPKI: 0.05304
LLC TRANSLATION FROM L1D PREFETCHER ACCESS:      24417  HIT:      23210  MISS:       1207  HIT %:    95.0567  MISS %:    4.94328   MPKI: 0.006035
LLC PREFETCH  REQUESTED:          0  ISSUED:          0  USEFUL:       4330  USELESS:      11423
LLC USEFUL LOAD PREFETCHES:       4330 PREFETCH ISSUED TO LOWER LEVEL:      13769  ACCURACY: 31.4475
LLC TIMELY PREFETCHES:       4330 LATE PREFETCHES: 0 DROPPED PREFETCHES: 0
LLC PREFETCHES SAME FILL-ORIGIN LEVEL: 0 DIFFERENT FILL-ORIGIN LEVEL: 0
LLC AVERAGE MISS LATENCY: 151.982 cycles
LLC RQ	ACCESS:    3055669	FORWARD:          0	MERGED:          0	TO_CACHE:    3055668
LLC WQ	ACCESS:     423785	FORWARD:          1	MERGED:          0	TO_CACHE:     423785
LLC PQ	ACCESS:      38217	FORWARD:          0	MERGED:          0	TO_CACHE:      38217

LLC Dense regions hint to LLC: 0

RAW hits: 2840447
Loads Generated: 44803929
Loads sent to L1D: 41963481
Stores Generated: 20207846
Stores sent to L1D: 20207881
Major fault: 0 Minor fault: 5869
Allocated PAGES: 5869

DRAM Statistics
 CHANNEL 0
 RQ ROW_BUFFER_HIT:      58081  ROW_BUFFER_MISS:     239444
 DBUS_CONGESTED:        170
 WQ ROW_BUFFER_HIT:      28084  ROW_BUFFER_MISS:     180571  FULL:          0

 AVG_CONGESTED_CYCLE: 5
 All warmup complete: 2
Channel 0 Bank busy for read cycles: 0
Channel 0 Bank busy for write cycles: 0
Channel 0
Rank 0
0banks busy for read cycles: 378510094
0banks busy for write cycles: 115514
1banks busy for read cycles: 26688165
1banks busy for write cycles: 16212602
2banks busy for read cycles: 3926959
2banks busy for write cycles: 3996267
3banks busy for read cycles: 583091
3banks busy for write cycles: 1435295
4banks busy for read cycles: 206116
4banks busy for write cycles: 713498
5banks busy for read cycles: 105166
5banks busy for write cycles: 423175
6banks busy for read cycles: 71987
6banks busy for write cycles: 289023
7banks busy for read cycles: 46582
7banks busy for write cycles: 233096
8banks busy for read cycles: 52754
8banks busy for write cycles: 210459

CPU 0 Branch Prediction Accuracy: 99.8674% MPKI: 0.23804 Average ROB Occupancy at Mispredict: 57.7713
Branch types
NOT_BRANCH: 164099013 82.0495%
BRANCH_DIRECT_JUMP: 1780172 0.890086%
BRANCH_INDIRECT: 9535407 4.7677%
BRANCH_CONDITIONAL: 18237136 9.11857%
BRANCH_DIRECT_CALL: 2494547 1.24727%
BRANCH_INDIRECT_CALL: 678804 0.339402%
BRANCH_RETURN: 3174582 1.58729%
BRANCH_OTHER: 0 0%

DRAM PAGES: 1048576
Allocated PAGES: 5869
