
*** ChampSim Multicore Out-of-Order Simulator ***

Warmup Instructions: 50000000
Simulation Instructions: 200000000
Number of CPUs: 1
LLC sets: 2048
LLC ways: 16
Off-chip DRAM Size: 4096 MB Channels: 1 Width: 64-bit Data Rate: 6400 MT/s
CPU 0 runs traces/spec2k17/602.gcc_s-1850B.champsimtrace.xz
.xz
BTB has LRU replacement policy
ITLB has LRU replacement policy
DTLB has LRU replacement policy
STLB has LRU replacement policy
L1I has LRU replacement policy
L1D has LRU replacement policy
Initialize SRRIP state for L2C
Initialize DRRIP state for LLC
Heartbeat CPU 0 instructions: 10000002 cycles: 3277375 heartbeat IPC: 3.05122 cumulative IPC: 3.05122 (Simulation time: 0 hr 1 min 14 sec) 
Heartbeat CPU 0 instructions: 20000000 cycles: 6554755 heartbeat IPC: 3.05122 cumulative IPC: 3.05122 (Simulation time: 0 hr 3 min 3 sec) 
Heartbeat CPU 0 instructions: 30000000 cycles: 9831000 heartbeat IPC: 3.05227 cumulative IPC: 3.05157 (Simulation time: 0 hr 5 min 5 sec) 
Heartbeat CPU 0 instructions: 40000000 cycles: 13107647 heartbeat IPC: 3.0519 cumulative IPC: 3.05165 (Simulation time: 0 hr 7 min 41 sec) 
Heartbeat CPU 0 instructions: 50000000 cycles: 16385073 heartbeat IPC: 3.05117 cumulative IPC: 3.05156 (Simulation time: 0 hr 11 min 17 sec) 

Warmup complete CPU 0 instructions: 50000004 cycles: 16385074 (Simulation time: 0 hr 11 min 17 sec) 

Heartbeat CPU 0 instructions: 60000003 cycles: 55958187 heartbeat IPC: 0.252697 cumulative IPC: 0.252697 (Simulation time: 0 hr 14 min 44 sec) 
Heartbeat CPU 0 instructions: 70000002 cycles: 95497596 heartbeat IPC: 0.252912 cumulative IPC: 0.252804 (Simulation time: 0 hr 20 min 24 sec) 
Heartbeat CPU 0 instructions: 80000003 cycles: 135022752 heartbeat IPC: 0.253003 cumulative IPC: 0.252871 (Simulation time: 0 hr 31 min 18 sec) 
Heartbeat CPU 0 instructions: 90000001 cycles: 174590689 heartbeat IPC: 0.25273 cumulative IPC: 0.252836 (Simulation time: 0 hr 40 min 13 sec) 
Heartbeat CPU 0 instructions: 100000000 cycles: 214175204 heartbeat IPC: 0.252624 cumulative IPC: 0.252793 (Simulation time: 0 hr 47 min 0 sec) 
Heartbeat CPU 0 instructions: 110000000 cycles: 253730293 heartbeat IPC: 0.252812 cumulative IPC: 0.252796 (Simulation time: 0 hr 51 min 6 sec) 
Heartbeat CPU 0 instructions: 120000003 cycles: 293253886 heartbeat IPC: 0.253014 cumulative IPC: 0.252827 (Simulation time: 0 hr 54 min 44 sec) 
Heartbeat CPU 0 instructions: 130000003 cycles: 332802020 heartbeat IPC: 0.252856 cumulative IPC: 0.252831 (Simulation time: 0 hr 56 min 32 sec) 
Heartbeat CPU 0 instructions: 140000000 cycles: 372338538 heartbeat IPC: 0.252931 cumulative IPC: 0.252842 (Simulation time: 0 hr 57 min 59 sec) 
Heartbeat CPU 0 instructions: 150000000 cycles: 411893325 heartbeat IPC: 0.252814 cumulative IPC: 0.252839 (Simulation time: 0 hr 59 min 31 sec) 
Heartbeat CPU 0 instructions: 160000000 cycles: 451483599 heartbeat IPC: 0.252587 cumulative IPC: 0.252816 (Simulation time: 1 hr 0 min 25 sec) 
Heartbeat CPU 0 instructions: 170000003 cycles: 491026103 heartbeat IPC: 0.252892 cumulative IPC: 0.252823 (Simulation time: 1 hr 1 min 18 sec) 
Heartbeat CPU 0 instructions: 180000000 cycles: 530542503 heartbeat IPC: 0.253059 cumulative IPC: 0.252841 (Simulation time: 1 hr 2 min 12 sec) 
Heartbeat CPU 0 instructions: 190000002 cycles: 570166082 heartbeat IPC: 0.252375 cumulative IPC: 0.252807 (Simulation time: 1 hr 3 min 4 sec) 
Heartbeat CPU 0 instructions: 200000000 cycles: 609726442 heartbeat IPC: 0.252778 cumulative IPC: 0.252806 (Simulation time: 1 hr 3 min 55 sec) 
Heartbeat CPU 0 instructions: 210000002 cycles: 649265730 heartbeat IPC: 0.252913 cumulative IPC: 0.252812 (Simulation time: 1 hr 4 min 46 sec) 
Heartbeat CPU 0 instructions: 220000000 cycles: 688877784 heartbeat IPC: 0.252448 cumulative IPC: 0.252791 (Simulation time: 1 hr 5 min 37 sec) 
Heartbeat CPU 0 instructions: 230000003 cycles: 728455626 heartbeat IPC: 0.252667 cumulative IPC: 0.252784 (Simulation time: 1 hr 6 min 28 sec) 
Heartbeat CPU 0 instructions: 240000000 cycles: 768055664 heartbeat IPC: 0.252525 cumulative IPC: 0.25277 (Simulation time: 1 hr 7 min 19 sec) 
Heartbeat CPU 0 instructions: 250000000 cycles: 807642010 heartbeat IPC: 0.252612 cumulative IPC: 0.252762 (Simulation time: 1 hr 8 min 9 sec) 
Finished CPU 0 instructions: 200000000 cycles: 791256937 cumulative IPC: 0.252762 (Simulation time: 1 hr 8 min 9 sec) 

ChampSim completed all CPUs

Region of Interest Statistics

CPU 0 cumulative IPC: 0.252762 instructions: 200000000 cycles: 791256937
ITLB TOTAL     ACCESS:   47884225  HIT:   47884225  MISS:          0  HIT %:        100  MISS %:          0   MPKI: 0
ITLB LOAD TRANSLATION ACCESS:   47884225  HIT:   47884225  MISS:          0  HIT %:        100  MISS %:          0   MPKI: 0
ITLB PREFETCH  REQUESTED:          0  ISSUED:          0  USEFUL:          0  USELESS:          0
ITLB USEFUL LOAD PREFETCHES:          0 PREFETCH ISSUED TO LOWER LEVEL:          0  ACCURACY: -nan
ITLB TIMELY PREFETCHES:          0 LATE PREFETCHES: 0 DROPPED PREFETCHES: 0
ITLB PREFETCHES SAME FILL-ORIGIN LEVEL: 0 DIFFERENT FILL-ORIGIN LEVEL: 0
ITLB AVERAGE MISS LATENCY: -nan cycles
ITLB RQ	ACCESS:   51615191	FORWARD:          0	MERGED:    3730965	TO_CACHE:   47884226

DTLB TOTAL     ACCESS:   54656159  HIT:   54590022  MISS:      66137  HIT %:     99.879  MISS %:   0.121006   MPKI: 0.330685
DTLB LOAD TRANSLATION ACCESS:   54656159  HIT:   54590022  MISS:      66137  HIT %:     99.879  MISS %:   0.121006   MPKI: 0.330685
DTLB PREFETCH  REQUESTED:          0  ISSUED:          0  USEFUL:          0  USELESS:          0
DTLB USEFUL LOAD PREFETCHES:          0 PREFETCH ISSUED TO LOWER LEVEL:          0  ACCURACY: -nan
DTLB TIMELY PREFETCHES:          0 LATE PREFETCHES: 0 DROPPED PREFETCHES: 0
DTLB PREFETCHES SAME FILL-ORIGIN LEVEL: 0 DIFFERENT FILL-ORIGIN LEVEL: 0
DTLB AVERAGE MISS LATENCY: 141.71 cycles
DTLB RQ	ACCESS:   55997428	FORWARD:          0	MERGED:    1338473	TO_CACHE:   54658955

STLB TOTAL     ACCESS:      92025  HIT:      30980  MISS:      61045  HIT %:    33.6648  MISS %:    66.3352   MPKI: 0.305225
STLB LOAD TRANSLATION ACCESS:      66137  HIT:       5092  MISS:      61045  HIT %:    7.69917  MISS %:    92.3008   MPKI: 0.305225
STLB TRANSLATION FROM L1D PREFETCHER ACCESS:      25888  HIT:      25888  MISS:          0  HIT %:        100  MISS %:          0   MPKI: 0
STLB PREFETCH  REQUESTED:          0  ISSUED:          0  USEFUL:          0  USELESS:          0
STLB USEFUL LOAD PREFETCHES:          0 PREFETCH ISSUED TO LOWER LEVEL:          0  ACCURACY: -nan
STLB TIMELY PREFETCHES:          0 LATE PREFETCHES: 15 DROPPED PREFETCHES: 191
STLB PREFETCHES SAME FILL-ORIGIN LEVEL: 0 DIFFERENT FILL-ORIGIN LEVEL: 0
STLB AVERAGE MISS LATENCY: 143.775 cycles
STLB RQ	ACCESS:     114186	FORWARD:          0	MERGED:      21955	TO_CACHE:      92231

STLB Hit, L1D data hit: 0
STLB Hit, L2C data hit: 0
STLB Hit, LLC data hit: 0
STLB Hit, LLC data miss: 0
STLB STLB hints to L2: 0
L1D TOTAL     ACCESS:   54995346  HIT:   50191586  MISS:    4803760  HIT %:    91.2652  MISS %:    8.73485   MPKI: 24.0188
L1D LOAD      ACCESS:   37703275  HIT:   32911264  MISS:    4792011  HIT %:    87.2902  MISS %:    12.7098   MPKI: 23.9601
L1D RFO       ACCESS:   17263548  HIT:   17261943  MISS:       1605  HIT %:    99.9907  MISS %: 0.00929705   MPKI: 0.008025
L1D PREFETCH  ACCESS:      28523  HIT:      18379  MISS:      10144  HIT %:    64.4357  MISS %:    35.5643   MPKI: 0.05072
AGUS PREFETCH L1 MISS: 0
L1D PREFETCH  REQUESTED:     114424  ISSUED:     114424  USEFUL:      10132  USELESS:         12
L1D USEFUL LOAD PREFETCHES:      10132 PREFETCH ISSUED TO LOWER LEVEL:      18414  ACCURACY: 55.0234
L1D TIMELY PREFETCHES:      10132 LATE PREFETCHES: 8270 DROPPED PREFETCHES: 196
L1D PREFETCHES SAME FILL-ORIGIN LEVEL: 18414 DIFFERENT FILL-ORIGIN LEVEL: 0
L1D AVERAGE MISS LATENCY: 737474 cycles
L1D RQ	ACCESS:   55585265	FORWARD:          0	MERGED:   16851048	TO_CACHE:   38733879
L1D WQ	ACCESS:   19411013	FORWARD:        338	MERGED:    2147464	TO_CACHE:   17263549
L1D PQ	ACCESS:      66375	FORWARD:          0	MERGED:      18326	TO_CACHE:      48049

L1D UNIQUE REGIONS ACCESSED: 0
L1D REGIONS CONFLICTS: 0
L1D Cross Page Prefetch Requests: 14589
L1D Same Page Prefetch Requests: 407097
L1D ROI Sum of L1D PQ occupancy: 649302
L1D PREFETCHES PUSHED FROM L2C: 0
L1I TOTAL     ACCESS:   51615189  HIT:   51615189  MISS:          0  HIT %:        100  MISS %:          0   MPKI: 0
L1I LOAD      ACCESS:   51615189  HIT:   51615189  MISS:          0  HIT %:        100  MISS %:          0   MPKI: 0
L1I PREFETCH  REQUESTED:          0  ISSUED:          0  USEFUL:          0  USELESS:          0
L1I USEFUL LOAD PREFETCHES:          0 PREFETCH ISSUED TO LOWER LEVEL:          0  ACCURACY: -nan
L1I TIMELY PREFETCHES:          0 LATE PREFETCHES: 0 DROPPED PREFETCHES: 0
L1I PREFETCHES SAME FILL-ORIGIN LEVEL: 0 DIFFERENT FILL-ORIGIN LEVEL: 0
L1I AVERAGE MISS LATENCY: -nan cycles
L1I RQ	ACCESS:   81357035	FORWARD:          0	MERGED:   29741844	TO_CACHE:   51615191

BTB TOTAL     ACCESS:   32765955  HIT:   32765926  MISS:         29  HIT %:    99.9999  MISS %: 8.85065e-05   MPKI: 0.000145
BTB BRANCH_DIRECT_JUMP	ACCESS:    4318197  HIT:    4318188  MISS:          9
BTB BRANCH_INDIRECT	ACCESS:          0  HIT:          0  MISS:          0
BTB BRANCH_CONDITIONAL	ACCESS:   24127035  HIT:   24127021  MISS:         14
BTB BRANCH_DIRECT_CALL	ACCESS:    2160361  HIT:    2160358  MISS:          3
BTB BRANCH_INDIRECT_CALL	ACCESS:          0  HIT:          0  MISS:          0
BTB BRANCH_RETURN	ACCESS:    2160362  HIT:    2160359  MISS:          3
BTB BRANCH_OTHER ACCESS:          0  HIT:          0  MISS:          0

L2C TOTAL     ACCESS:    4875626  HIT:    1309821  MISS:    3565805  HIT %:    26.8647  MISS %:    73.1353   MPKI: 17.829
L2C LOAD      ACCESS:    4783741  HIT:    1245655  MISS:    3538086  HIT %:    26.0393  MISS %:    73.9607   MPKI: 17.6904
L2C DATA LOAD MPKI: 17.6904
L2C INSTRUCTION LOAD MPKI: 0
L2C RFO       ACCESS:       1605  HIT:          0  MISS:       1605  HIT %:          0  MISS %:        100   MPKI: 0.008025
L2C PREFETCH  ACCESS:      18414  HIT:       3140  MISS:      15274  HIT %:    17.0522  MISS %:    82.9478   MPKI: 0.07637
AGUS PREFETCH L1 MISS: 0
L2C DATA PREFETCH MPKI: 0.07637
L2C INSTRUCTION PREFETCH MPKI: 0
L2C WRITEBACK ACCESS:      10324  HIT:      10324  MISS:          0  HIT %:        100  MISS %:          0   MPKI: 0
L2C LOAD TRANSLATION ACCESS:      61336  HIT:      50515  MISS:      10821  HIT %:    82.3578  MISS %:    17.6422   MPKI: 0.054105
L2C TRANSLATION FROM L1D PREFETCHER ACCESS:        206  HIT:        187  MISS:         19  HIT %:    90.7767  MISS %:     9.2233   MPKI: 9.5e-05
L2C PREFETCH  REQUESTED:          0  ISSUED:          0  USEFUL:         22  USELESS:      15991
L2C USEFUL LOAD PREFETCHES:         22 PREFETCH ISSUED TO LOWER LEVEL:      15274  ACCURACY: 0.144036
L2C TIMELY PREFETCHES:         22 LATE PREFETCHES: 0 DROPPED PREFETCHES: 0
L2C PREFETCHES SAME FILL-ORIGIN LEVEL: 0 DIFFERENT FILL-ORIGIN LEVEL: 0
L2C AVERAGE MISS LATENCY: 106.366 cycles
L2C RQ	ACCESS:    4846888	FORWARD:          0	MERGED:          0	TO_CACHE:    4846888
L2C WQ	ACCESS:      10324	FORWARD:          0	MERGED:          0	TO_CACHE:      10324
L2C PQ	ACCESS:      18414	FORWARD:          0	MERGED:          0	TO_CACHE:      18414

L2C Instructions Evicting Data 0
L2C Translations Evicting Data 10792
L2C Data Evicting Data 3544171
L2C Instructions Evicting Instructions 0
L2C Translations Evicting Instructions 0
L2C Data Evicting Instructions 0
L2C Instructions Evicting Translations 0
L2C Translations Evicting Translations 48
L2C Data Evicting Translations 10794
L2C Dense regions hint from L2: 0
PSCL5 TOTAL     ACCESS:      61241  HIT:      61241  MISS:          0  HIT %:        100  MISS %:          0   MPKI: 0
PSCL5 LOAD TRANSLATION ACCESS:      61045  HIT:      61045  MISS:          0  HIT %:        100  MISS %:          0   MPKI: 0
PSCL5 TRANSLATION FROM L1D PREFETCHER ACCESS:        196  HIT:        196  MISS:          0  HIT %:        100  MISS %:          0   MPKI: 0
PSCL5 PREFETCH  REQUESTED:          0  ISSUED:          0  USEFUL:          0  USELESS:          0
PSCL5 USEFUL LOAD PREFETCHES:          0 PREFETCH ISSUED TO LOWER LEVEL:          0  ACCURACY: -nan
PSCL5 TIMELY PREFETCHES:          0 LATE PREFETCHES: 0 DROPPED PREFETCHES: 0
PSCL5 PREFETCHES SAME FILL-ORIGIN LEVEL: 0 DIFFERENT FILL-ORIGIN LEVEL: 0

PSCL4 TOTAL     ACCESS:      61241  HIT:      61241  MISS:          0  HIT %:        100  MISS %:          0   MPKI: 0
PSCL4 LOAD TRANSLATION ACCESS:      61045  HIT:      61045  MISS:          0  HIT %:        100  MISS %:          0   MPKI: 0
PSCL4 TRANSLATION FROM L1D PREFETCHER ACCESS:        196  HIT:        196  MISS:          0  HIT %:        100  MISS %:          0   MPKI: 0
PSCL4 PREFETCH  REQUESTED:          0  ISSUED:          0  USEFUL:          0  USELESS:          0
PSCL4 USEFUL LOAD PREFETCHES:          0 PREFETCH ISSUED TO LOWER LEVEL:          0  ACCURACY: -nan
PSCL4 TIMELY PREFETCHES:          0 LATE PREFETCHES: 0 DROPPED PREFETCHES: 0
PSCL4 PREFETCHES SAME FILL-ORIGIN LEVEL: 0 DIFFERENT FILL-ORIGIN LEVEL: 0

PSCL3 TOTAL     ACCESS:      61241  HIT:      61240  MISS:          1  HIT %:    99.9984  MISS %: 0.00163289   MPKI: 5e-06
PSCL3 LOAD TRANSLATION ACCESS:      61045  HIT:      61044  MISS:          1  HIT %:    99.9984  MISS %: 0.00163814   MPKI: 5e-06
PSCL3 TRANSLATION FROM L1D PREFETCHER ACCESS:        196  HIT:        196  MISS:          0  HIT %:        100  MISS %:          0   MPKI: 0
PSCL3 PREFETCH  REQUESTED:          0  ISSUED:          0  USEFUL:          0  USELESS:          0
PSCL3 USEFUL LOAD PREFETCHES:          0 PREFETCH ISSUED TO LOWER LEVEL:          0  ACCURACY: -nan
PSCL3 TIMELY PREFETCHES:          0 LATE PREFETCHES: 0 DROPPED PREFETCHES: 0
PSCL3 PREFETCHES SAME FILL-ORIGIN LEVEL: 0 DIFFERENT FILL-ORIGIN LEVEL: 0

PSCL2 TOTAL     ACCESS:      61241  HIT:      60545  MISS:        696  HIT %:    98.8635  MISS %:    1.13649   MPKI: 0.00348
PSCL2 LOAD TRANSLATION ACCESS:      61045  HIT:      60349  MISS:        696  HIT %:    98.8599  MISS %:    1.14014   MPKI: 0.00348
PSCL2 TRANSLATION FROM L1D PREFETCHER ACCESS:        196  HIT:        196  MISS:          0  HIT %:        100  MISS %:          0   MPKI: 0
PSCL2 PREFETCH  REQUESTED:          0  ISSUED:          0  USEFUL:          0  USELESS:          0
PSCL2 USEFUL LOAD PREFETCHES:          0 PREFETCH ISSUED TO LOWER LEVEL:          0  ACCURACY: -nan
PSCL2 TIMELY PREFETCHES:          0 LATE PREFETCHES: 0 DROPPED PREFETCHES: 0
PSCL2 PREFETCHES SAME FILL-ORIGIN LEVEL: 0 DIFFERENT FILL-ORIGIN LEVEL: 0

LLC TOTAL     ACCESS:    3570727  HIT:       6086  MISS:    3564641  HIT %:   0.170441  MISS %:    99.8296   MPKI: 17.8232
LLC LOAD      ACCESS:    3538086  HIT:        750  MISS:    3537336  HIT %:  0.0211979  MISS %:    99.9788   MPKI: 17.6867
LLC RFO       ACCESS:       1605  HIT:          0  MISS:       1605  HIT %:          0  MISS %:        100   MPKI: 0.008025
LLC PREFETCH  ACCESS:      15274  HIT:          1  MISS:      15273  HIT %: 0.00654707  MISS %:    99.9935   MPKI: 0.076365
AGUS PREFETCH L1 MISS: 0
LLC WRITEBACK ACCESS:       4922  HIT:       4773  MISS:        149  HIT %:    96.9728  MISS %:    3.02722   MPKI: 0.000745
LLC LOAD TRANSLATION ACCESS:      10821  HIT:        561  MISS:      10260  HIT %:    5.18436  MISS %:    94.8156   MPKI: 0.0513
LLC TRANSLATION FROM L1D PREFETCHER ACCESS:         19  HIT:          1  MISS:         18  HIT %:    5.26316  MISS %:    94.7368   MPKI: 9e-05
LLC PREFETCH  REQUESTED:          0  ISSUED:          0  USEFUL:          1  USELESS:      18333
LLC USEFUL LOAD PREFETCHES:          1 PREFETCH ISSUED TO LOWER LEVEL:      15273  ACCURACY: 0.0065475
LLC TIMELY PREFETCHES:          1 LATE PREFETCHES: 0 DROPPED PREFETCHES: 0
LLC PREFETCHES SAME FILL-ORIGIN LEVEL: 0 DIFFERENT FILL-ORIGIN LEVEL: 0
LLC AVERAGE MISS LATENCY: 76.3772 cycles
LLC RQ	ACCESS:    3550531	FORWARD:          0	MERGED:          0	TO_CACHE:    3550531
LLC WQ	ACCESS:       4922	FORWARD:          0	MERGED:          0	TO_CACHE:       4922
LLC PQ	ACCESS:      15274	FORWARD:          0	MERGED:          0	TO_CACHE:      15274

LLC Dense regions hint to LLC: 0

RAW hits: 10837
Loads Generated: 55596102
Loads sent to L1D: 55585265
Stores Generated: 19411013
Stores sent to L1D: 19411013
Major fault: 0 Minor fault: 76297
Allocated PAGES: 76297
Completed 
Accuracy : 65.6638
Number of unique groups: 15729053

DRAM Statistics
 CHANNEL 0
 RQ ROW_BUFFER_HIT:    3337918  ROW_BUFFER_MISS:     226574
 DBUS_CONGESTED:         12
 WQ ROW_BUFFER_HIT:        558  ROW_BUFFER_MISS:       4370  FULL:          0

 AVG_CONGESTED_CYCLE: 3
 All warmup complete: 2
Channel 0 Bank busy for read cycles: 0
Channel 0 Bank busy for write cycles: 0
Channel 0
Rank 0
0banks busy for read cycles: 593618842
0banks busy for write cycles: 4126
1banks busy for read cycles: 191973536
1banks busy for write cycles: 984001
2banks busy for read cycles: 4443957
2banks busy for write cycles: 173454
3banks busy for read cycles: 6625
3banks busy for write cycles: 43745
4banks busy for read cycles: 186
4banks busy for write cycles: 5774
5banks busy for read cycles: 0
5banks busy for write cycles: 1612
6banks busy for read cycles: 0
6banks busy for write cycles: 874
7banks busy for read cycles: 0
7banks busy for write cycles: 206
8banks busy for read cycles: 0
8banks busy for write cycles: 0

CPU 0 Branch Prediction Accuracy: 99.9621% MPKI: 0.097185 Average ROB Occupancy at Mispredict: 310.471
Branch types
NOT_BRANCH: 148719234 74.3596%
BRANCH_DIRECT_JUMP: 4318197 2.1591%
BRANCH_INDIRECT: 0 0%
BRANCH_CONDITIONAL: 42641844 21.3209%
BRANCH_DIRECT_CALL: 2160361 1.08018%
BRANCH_INDIRECT_CALL: 0 0%
BRANCH_RETURN: 2160362 1.08018%
BRANCH_OTHER: 0 0%

DRAM PAGES: 1048576
Allocated PAGES: 76297
