
*** ChampSim Multicore Out-of-Order Simulator ***

Warmup Instructions: 50000000
Simulation Instructions: 200000000
Number of CPUs: 1
LLC sets: 2048
LLC ways: 16
Off-chip DRAM Size: 4096 MB Channels: 1 Width: 64-bit Data Rate: 6400 MT/s
CPU 0 runs traces/spec2k17/client_008.champsimtrace.xz
.xz
BTB has LRU replacement policy
ITLB has LRU replacement policy
DTLB has LRU replacement policy
STLB has LRU replacement policy
L1I has LRU replacement policy
L1D has LRU replacement policy
Initialize SRRIP state for L2C
Initialize DRRIP state for LLC
Heartbeat CPU 0 instructions: 10000000 cycles: 2912473 heartbeat IPC: 3.43351 cumulative IPC: 3.43351 (Simulation time: 0 hr 0 min 47 sec) 
Heartbeat CPU 0 instructions: 20000001 cycles: 5844563 heartbeat IPC: 3.41054 cumulative IPC: 3.42198 (Simulation time: 0 hr 1 min 43 sec) 
Heartbeat CPU 0 instructions: 30000001 cycles: 8752640 heartbeat IPC: 3.4387 cumulative IPC: 3.42754 (Simulation time: 0 hr 2 min 35 sec) 
Heartbeat CPU 0 instructions: 40000003 cycles: 11687276 heartbeat IPC: 3.40758 cumulative IPC: 3.42253 (Simulation time: 0 hr 3 min 27 sec) 
Heartbeat CPU 0 instructions: 50000002 cycles: 14617903 heartbeat IPC: 3.41224 cumulative IPC: 3.42046 (Simulation time: 0 hr 4 min 13 sec) 

Warmup complete CPU 0 instructions: 50000002 cycles: 14617903 (Simulation time: 0 hr 4 min 13 sec) 

Heartbeat CPU 0 instructions: 60000001 cycles: 35787277 heartbeat IPC: 0.47238 cumulative IPC: 0.47238 (Simulation time: 0 hr 5 min 11 sec) 
Heartbeat CPU 0 instructions: 70000000 cycles: 56647828 heartbeat IPC: 0.479374 cumulative IPC: 0.475851 (Simulation time: 0 hr 6 min 8 sec) 
Heartbeat CPU 0 instructions: 80000000 cycles: 78187176 heartbeat IPC: 0.464267 cumulative IPC: 0.471926 (Simulation time: 0 hr 6 min 59 sec) 
Heartbeat CPU 0 instructions: 90000003 cycles: 107577464 heartbeat IPC: 0.340249 cumulative IPC: 0.430295 (Simulation time: 0 hr 7 min 59 sec) 
Heartbeat CPU 0 instructions: 100000001 cycles: 124477615 heartbeat IPC: 0.591711 cumulative IPC: 0.455126 (Simulation time: 0 hr 8 min 49 sec) 
*** Reached end of trace for Core: 0 Repeating trace: traces/spec2k17/client_008.champsimtrace.xz
Heartbeat CPU 0 instructions: 110000000 cycles: 145962806 heartbeat IPC: 0.465437 cumulative IPC: 0.456813 (Simulation time: 0 hr 9 min 49 sec) 
Heartbeat CPU 0 instructions: 120000001 cycles: 168246416 heartbeat IPC: 0.44876 cumulative IPC: 0.455645 (Simulation time: 0 hr 10 min 47 sec) 
Heartbeat CPU 0 instructions: 130000000 cycles: 191814577 heartbeat IPC: 0.424301 cumulative IPC: 0.451476 (Simulation time: 0 hr 11 min 44 sec) 
Heartbeat CPU 0 instructions: 140000002 cycles: 214101852 heartbeat IPC: 0.448687 cumulative IPC: 0.451164 (Simulation time: 0 hr 12 min 42 sec) 
Heartbeat CPU 0 instructions: 150000001 cycles: 237291565 heartbeat IPC: 0.431226 cumulative IPC: 0.449088 (Simulation time: 0 hr 13 min 39 sec) 
Heartbeat CPU 0 instructions: 160000000 cycles: 259206983 heartbeat IPC: 0.4563 cumulative IPC: 0.449734 (Simulation time: 0 hr 14 min 34 sec) 
Heartbeat CPU 0 instructions: 170000000 cycles: 279832153 heartbeat IPC: 0.484844 cumulative IPC: 0.452464 (Simulation time: 0 hr 15 min 32 sec) 
Heartbeat CPU 0 instructions: 180000000 cycles: 299347572 heartbeat IPC: 0.512415 cumulative IPC: 0.456573 (Simulation time: 0 hr 16 min 29 sec) 
Heartbeat CPU 0 instructions: 190000001 cycles: 329499071 heartbeat IPC: 0.331659 cumulative IPC: 0.444612 (Simulation time: 0 hr 17 min 37 sec) 
Heartbeat CPU 0 instructions: 200000000 cycles: 349421127 heartbeat IPC: 0.501956 cumulative IPC: 0.448024 (Simulation time: 0 hr 18 min 39 sec) 
*** Reached end of trace for Core: 0 Repeating trace: traces/spec2k17/client_008.champsimtrace.xz
Heartbeat CPU 0 instructions: 210000001 cycles: 367922426 heartbeat IPC: 0.540503 cumulative IPC: 0.452867 (Simulation time: 0 hr 19 min 59 sec) 
Heartbeat CPU 0 instructions: 220000000 cycles: 390688769 heartbeat IPC: 0.439245 cumulative IPC: 0.452042 (Simulation time: 0 hr 21 min 27 sec) 
Heartbeat CPU 0 instructions: 230000003 cycles: 413525938 heartbeat IPC: 0.437883 cumulative IPC: 0.451232 (Simulation time: 0 hr 22 min 59 sec) 
Heartbeat CPU 0 instructions: 240000002 cycles: 436295337 heartbeat IPC: 0.439186 cumulative IPC: 0.450581 (Simulation time: 0 hr 24 min 24 sec) 
Heartbeat CPU 0 instructions: 250000002 cycles: 459151309 heartbeat IPC: 0.437522 cumulative IPC: 0.44991 (Simulation time: 0 hr 26 min 53 sec) 
Finished CPU 0 instructions: 200000000 cycles: 444533406 cumulative IPC: 0.44991 (Simulation time: 0 hr 26 min 53 sec) 

ChampSim completed all CPUs

Region of Interest Statistics

CPU 0 cumulative IPC: 0.44991 instructions: 200000000 cycles: 444533406
ITLB TOTAL     ACCESS:   33953444  HIT:   32954162  MISS:     999282  HIT %:    97.0569  MISS %:    2.94309   MPKI: 4.99641
ITLB LOAD TRANSLATION ACCESS:   33953444  HIT:   32954162  MISS:     999282  HIT %:    97.0569  MISS %:    2.94309   MPKI: 4.99641
ITLB PREFETCH  REQUESTED:          0  ISSUED:          0  USEFUL:          0  USELESS:          0
ITLB USEFUL LOAD PREFETCHES:          0 PREFETCH ISSUED TO LOWER LEVEL:          0  ACCURACY: -nan
ITLB TIMELY PREFETCHES:          0 LATE PREFETCHES: 0 DROPPED PREFETCHES: 0
ITLB PREFETCHES SAME FILL-ORIGIN LEVEL: 0 DIFFERENT FILL-ORIGIN LEVEL: 0
ITLB AVERAGE MISS LATENCY: 9.49259 cycles
ITLB RQ	ACCESS:   38137545	FORWARD:          0	MERGED:    3935233	TO_CACHE:   34202312

DTLB TOTAL     ACCESS:   44499218  HIT:   41452093  MISS:    3047125  HIT %:    93.1524  MISS %:    6.84759   MPKI: 15.2356
DTLB LOAD TRANSLATION ACCESS:   44499218  HIT:   41452093  MISS:    3047125  HIT %:    93.1524  MISS %:    6.84759   MPKI: 15.2356
DTLB PREFETCH  REQUESTED:          0  ISSUED:          0  USEFUL:          0  USELESS:          0
DTLB USEFUL LOAD PREFETCHES:          0 PREFETCH ISSUED TO LOWER LEVEL:          0  ACCURACY: -nan
DTLB TIMELY PREFETCHES:          0 LATE PREFETCHES: 0 DROPPED PREFETCHES: 0
DTLB PREFETCHES SAME FILL-ORIGIN LEVEL: 0 DIFFERENT FILL-ORIGIN LEVEL: 0
DTLB AVERAGE MISS LATENCY: 9.4499 cycles
DTLB RQ	ACCESS:   54680011	FORWARD:          0	MERGED:   10090002	TO_CACHE:   44590009

STLB TOTAL     ACCESS:    4707234  HIT:    4675848  MISS:      31386  HIT %:    99.3332  MISS %:   0.666761   MPKI: 0.15693
STLB LOAD TRANSLATION ACCESS:    4046407  HIT:    4015161  MISS:      31246  HIT %:    99.2278  MISS %:   0.772191   MPKI: 0.15623
STLB TRANSLATION FROM L1D PREFETCHER ACCESS:     660827  HIT:     660687  MISS:        140  HIT %:    99.9788  MISS %:  0.0211856   MPKI: 0.0007
STLB PREFETCH  REQUESTED:          0  ISSUED:          0  USEFUL:         98  USELESS:         42
STLB USEFUL LOAD PREFETCHES:         98 PREFETCH ISSUED TO LOWER LEVEL:          0  ACCURACY: inf
STLB TIMELY PREFETCHES:         98 LATE PREFETCHES: 0 DROPPED PREFETCHES: 205
STLB PREFETCHES SAME FILL-ORIGIN LEVEL: 0 DIFFERENT FILL-ORIGIN LEVEL: 0
STLB AVERAGE MISS LATENCY: 58.525 cycles
STLB RQ	ACCESS:    4781156	FORWARD:          0	MERGED:      73710	TO_CACHE:    4707446

STLB Hit, L1D data hit: 0
STLB Hit, L2C data hit: 0
STLB Hit, LLC data hit: 0
STLB Hit, LLC data miss: 0
STLB STLB hints to L2: 0
L1D TOTAL     ACCESS:   54040804  HIT:   50331530  MISS:    3709274  HIT %:    93.1362  MISS %:    6.86384   MPKI: 18.5464
L1D LOAD      ACCESS:   37792463  HIT:   34434865  MISS:    3357598  HIT %:    91.1157  MISS %:    8.88431   MPKI: 16.788
L1D RFO       ACCESS:   15537424  HIT:   15194368  MISS:     343056  HIT %:    97.7921  MISS %:    2.20793   MPKI: 1.71528
L1D PREFETCH  ACCESS:     710917  HIT:     702297  MISS:       8620  HIT %:    98.7875  MISS %:    1.21252   MPKI: 0.0431
AGUS PREFETCH L1 MISS: 0
L1D PREFETCH  REQUESTED:    1476658  ISSUED:    1476658  USEFUL:       7246  USELESS:       1374
L1D USEFUL LOAD PREFETCHES:       7246 PREFETCH ISSUED TO LOWER LEVEL:      16579  ACCURACY: 43.7059
L1D TIMELY PREFETCHES:       7246 LATE PREFETCHES: 7959 DROPPED PREFETCHES: 237
L1D PREFETCHES SAME FILL-ORIGIN LEVEL: 16579 DIFFERENT FILL-ORIGIN LEVEL: 0
L1D AVERAGE MISS LATENCY: 681485 cycles
L1D RQ	ACCESS:   56711191	FORWARD:          0	MERGED:   18424352	TO_CACHE:   38033279
L1D WQ	ACCESS:   17136260	FORWARD:     253819	MERGED:     489528	TO_CACHE:   16646732
L1D PQ	ACCESS:     741909	FORWARD:          0	MERGED:       6901	TO_CACHE:     734749

L1D UNIQUE REGIONS ACCESSED: 0
L1D REGIONS CONFLICTS: 0
L1D Cross Page Prefetch Requests: 692099
L1D Same Page Prefetch Requests: 63625
L1D ROI Sum of L1D PQ occupancy: 10258548
L1D PREFETCHES PUSHED FROM L2C: 0
L1I TOTAL     ACCESS:   37104916  HIT:   32807042  MISS:    4297874  HIT %:     88.417  MISS %:     11.583   MPKI: 21.4894
L1I LOAD      ACCESS:   37104916  HIT:   32807042  MISS:    4297874  HIT %:     88.417  MISS %:     11.583   MPKI: 21.4894
L1I PREFETCH  REQUESTED:          0  ISSUED:          0  USEFUL:          0  USELESS:          0
L1I USEFUL LOAD PREFETCHES:          0 PREFETCH ISSUED TO LOWER LEVEL:          0  ACCURACY: -nan
L1I TIMELY PREFETCHES:          0 LATE PREFETCHES: 0 DROPPED PREFETCHES: 0
L1I PREFETCHES SAME FILL-ORIGIN LEVEL: 0 DIFFERENT FILL-ORIGIN LEVEL: 0
L1I AVERAGE MISS LATENCY: 17.6413 cycles
L1I RQ	ACCESS:   62299033	FORWARD:          0	MERGED:   24161488	TO_CACHE:   38137545

BTB TOTAL     ACCESS:   36528429  HIT:   31583049  MISS:    4945380  HIT %:    86.4616  MISS %:    13.5384   MPKI: 24.7269
BTB BRANCH_DIRECT_JUMP	ACCESS:    2061309  HIT:    1966278  MISS:      95031
BTB BRANCH_INDIRECT	ACCESS:   13234606  HIT:   11716494  MISS:    1518112
BTB BRANCH_CONDITIONAL	ACCESS:   12402841  HIT:   12111408  MISS:     291433
BTB BRANCH_DIRECT_CALL	ACCESS:    1759418  HIT:    1715408  MISS:      44010
BTB BRANCH_INDIRECT_CALL	ACCESS:    2655183  HIT:    2016702  MISS:     638481
BTB BRANCH_RETURN	ACCESS:    4415072  HIT:    2056759  MISS:    2358313
BTB BRANCH_OTHER ACCESS:          0  HIT:          0  MISS:          0

L2C TOTAL     ACCESS:    8532163  HIT:    7451958  MISS:    1080205  HIT %:    87.3396  MISS %:    12.6604   MPKI: 5.40102
L2C LOAD      ACCESS:    7647501  HIT:    6852811  MISS:     794690  HIT %:    89.6085  MISS %:    10.3915   MPKI: 3.97345
L2C DATA LOAD MPKI: 2.72627
L2C INSTRUCTION LOAD MPKI: 1.24717
L2C RFO       ACCESS:     343041  HIT:      78611  MISS:     264430  HIT %:    22.9159  MISS %:    77.0841   MPKI: 1.32215
L2C PREFETCH  ACCESS:      16579  HIT:      16363  MISS:        216  HIT %:    98.6971  MISS %:    1.30285   MPKI: 0.00108
AGUS PREFETCH L1 MISS: 0
L2C DATA PREFETCH MPKI: 0.00108
L2C INSTRUCTION PREFETCH MPKI: 0
L2C WRITEBACK ACCESS:     491754  HIT:     483277  MISS:       8477  HIT %:    98.2762  MISS %:    1.72383   MPKI: 0.042385
L2C LOAD TRANSLATION ACCESS:      32884  HIT:      20541  MISS:      12343  HIT %:     62.465  MISS %:     37.535   MPKI: 0.061715
L2C TRANSLATION FROM L1D PREFETCHER ACCESS:        404  HIT:        355  MISS:         49  HIT %:    87.8713  MISS %:    12.1287   MPKI: 0.000245
L2C PREFETCH  REQUESTED:          0  ISSUED:          0  USEFUL:        110  USELESS:        151
L2C USEFUL LOAD PREFETCHES:        110 PREFETCH ISSUED TO LOWER LEVEL:        216  ACCURACY: 50.9259
L2C TIMELY PREFETCHES:        110 LATE PREFETCHES: 0 DROPPED PREFETCHES: 0
L2C PREFETCHES SAME FILL-ORIGIN LEVEL: 0 DIFFERENT FILL-ORIGIN LEVEL: 0
L2C AVERAGE MISS LATENCY: 92.0775 cycles
L2C RQ	ACCESS:    8023858	FORWARD:          0	MERGED:          0	TO_CACHE:    8023831
L2C WQ	ACCESS:     491754	FORWARD:         27	MERGED:          0	TO_CACHE:     491754
L2C PQ	ACCESS:      16579	FORWARD:          0	MERGED:          0	TO_CACHE:      16579

L2C Instructions Evicting Data 153997
L2C Translations Evicting Data 8195
L2C Data Evicting Data 650010
L2C Instructions Evicting Instructions 91148
L2C Translations Evicting Instructions 3961
L2C Data Evicting Instructions 152132
L2C Instructions Evicting Translations 4290
L2C Translations Evicting Translations 236
L2C Data Evicting Translations 7759
L2C Dense regions hint from L2: 0
PSCL5 TOTAL     ACCESS:      31591  HIT:      31591  MISS:          0  HIT %:        100  MISS %:          0   MPKI: 0
PSCL5 LOAD TRANSLATION ACCESS:      31246  HIT:      31246  MISS:          0  HIT %:        100  MISS %:          0   MPKI: 0
PSCL5 TRANSLATION FROM L1D PREFETCHER ACCESS:        345  HIT:        345  MISS:          0  HIT %:        100  MISS %:          0   MPKI: 0
PSCL5 PREFETCH  REQUESTED:          0  ISSUED:          0  USEFUL:          0  USELESS:          0
PSCL5 USEFUL LOAD PREFETCHES:          0 PREFETCH ISSUED TO LOWER LEVEL:          0  ACCURACY: -nan
PSCL5 TIMELY PREFETCHES:          0 LATE PREFETCHES: 0 DROPPED PREFETCHES: 0
PSCL5 PREFETCHES SAME FILL-ORIGIN LEVEL: 0 DIFFERENT FILL-ORIGIN LEVEL: 0

PSCL4 TOTAL     ACCESS:      31591  HIT:      31591  MISS:          0  HIT %:        100  MISS %:          0   MPKI: 0
PSCL4 LOAD TRANSLATION ACCESS:      31246  HIT:      31246  MISS:          0  HIT %:        100  MISS %:          0   MPKI: 0
PSCL4 TRANSLATION FROM L1D PREFETCHER ACCESS:        345  HIT:        345  MISS:          0  HIT %:        100  MISS %:          0   MPKI: 0
PSCL4 PREFETCH  REQUESTED:          0  ISSUED:          0  USEFUL:          0  USELESS:          0
PSCL4 USEFUL LOAD PREFETCHES:          0 PREFETCH ISSUED TO LOWER LEVEL:          0  ACCURACY: -nan
PSCL4 TIMELY PREFETCHES:          0 LATE PREFETCHES: 0 DROPPED PREFETCHES: 0
PSCL4 PREFETCHES SAME FILL-ORIGIN LEVEL: 0 DIFFERENT FILL-ORIGIN LEVEL: 0

PSCL3 TOTAL     ACCESS:      31443  HIT:      31403  MISS:         40  HIT %:    99.8728  MISS %:   0.127214   MPKI: 0.0002
PSCL3 LOAD TRANSLATION ACCESS:      31151  HIT:      31111  MISS:         40  HIT %:    99.8716  MISS %:   0.128407   MPKI: 0.0002
PSCL3 TRANSLATION FROM L1D PREFETCHER ACCESS:        292  HIT:        292  MISS:          0  HIT %:        100  MISS %:          0   MPKI: 0
PSCL3 PREFETCH  REQUESTED:          0  ISSUED:          0  USEFUL:          0  USELESS:          0
PSCL3 USEFUL LOAD PREFETCHES:          0 PREFETCH ISSUED TO LOWER LEVEL:          0  ACCURACY: -nan
PSCL3 TIMELY PREFETCHES:          0 LATE PREFETCHES: 0 DROPPED PREFETCHES: 0
PSCL3 PREFETCHES SAME FILL-ORIGIN LEVEL: 0 DIFFERENT FILL-ORIGIN LEVEL: 0

PSCL2 TOTAL     ACCESS:      31491  HIT:      29876  MISS:       1615  HIT %:    94.8716  MISS %:    5.12845   MPKI: 0.008075
PSCL2 LOAD TRANSLATION ACCESS:      31256  HIT:      29641  MISS:       1615  HIT %:     94.833  MISS %:    5.16701   MPKI: 0.008075
PSCL2 TRANSLATION FROM L1D PREFETCHER ACCESS:        235  HIT:        235  MISS:          0  HIT %:        100  MISS %:          0   MPKI: 0
PSCL2 PREFETCH  REQUESTED:          0  ISSUED:          0  USEFUL:          0  USELESS:          0
PSCL2 USEFUL LOAD PREFETCHES:          0 PREFETCH ISSUED TO LOWER LEVEL:          0  ACCURACY: -nan
PSCL2 TIMELY PREFETCHES:          0 LATE PREFETCHES: 0 DROPPED PREFETCHES: 0
PSCL2 PREFETCHES SAME FILL-ORIGIN LEVEL: 0 DIFFERENT FILL-ORIGIN LEVEL: 0

LLC TOTAL     ACCESS:    1394464  HIT:     918442  MISS:     476022  HIT %:    65.8634  MISS %:    34.1366   MPKI: 2.38011
LLC LOAD      ACCESS:     794690  HIT:     579146  MISS:     215544  HIT %:     72.877  MISS %:     27.123   MPKI: 1.07772
LLC RFO       ACCESS:     264430  HIT:      18674  MISS:     245756  HIT %:    7.06198  MISS %:     92.938   MPKI: 1.22878
LLC PREFETCH  ACCESS:        216  HIT:        173  MISS:         43  HIT %:    80.0926  MISS %:    19.9074   MPKI: 0.000215
AGUS PREFETCH L1 MISS: 0
LLC WRITEBACK ACCESS:     322736  HIT:     311595  MISS:      11141  HIT %:     96.548  MISS %:    3.45205   MPKI: 0.055705
LLC LOAD TRANSLATION ACCESS:      12343  HIT:       8822  MISS:       3521  HIT %:    71.4737  MISS %:    28.5263   MPKI: 0.017605
LLC TRANSLATION FROM L1D PREFETCHER ACCESS:         49  HIT:         32  MISS:         17  HIT %:    65.3061  MISS %:    34.6939   MPKI: 8.5e-05
LLC PREFETCH  REQUESTED:          0  ISSUED:          0  USEFUL:         22  USELESS:         32
LLC USEFUL LOAD PREFETCHES:         22 PREFETCH ISSUED TO LOWER LEVEL:         43  ACCURACY: 51.1628
LLC TIMELY PREFETCHES:         22 LATE PREFETCHES: 0 DROPPED PREFETCHES: 0
LLC PREFETCHES SAME FILL-ORIGIN LEVEL: 0 DIFFERENT FILL-ORIGIN LEVEL: 0
LLC AVERAGE MISS LATENCY: 141.319 cycles
LLC RQ	ACCESS:    1071512	FORWARD:          0	MERGED:          0	TO_CACHE:    1071512
LLC WQ	ACCESS:     322736	FORWARD:          0	MERGED:          0	TO_CACHE:     322736
LLC PQ	ACCESS:        216	FORWARD:          0	MERGED:          0	TO_CACHE:        216

LLC Dense regions hint to LLC: 0

RAW hits: 3382357
Loads Generated: 60093550
Loads sent to L1D: 56711191
Stores Generated: 17136254
Stores sent to L1D: 17136260
Major fault: 0 Minor fault: 5379
Allocated PAGES: 5379
Completed 
Accuracy : 85.5908
Number of unique groups: 7646339

DRAM Statistics
 CHANNEL 0
 RQ ROW_BUFFER_HIT:     131832  ROW_BUFFER_MISS:     333047
 DBUS_CONGESTED:        202
 WQ ROW_BUFFER_HIT:      48438  ROW_BUFFER_MISS:     217969  FULL:          0

 AVG_CONGESTED_CYCLE: 4
 All warmup complete: 2
Channel 0 Bank busy for read cycles: 0
Channel 0 Bank busy for write cycles: 0
Channel 0
Rank 0
0banks busy for read cycles: 369992316
0banks busy for write cycles: 136439
1banks busy for read cycles: 37872150
1banks busy for write cycles: 19875025
2banks busy for read cycles: 5767579
2banks busy for write cycles: 4954804
3banks busy for read cycles: 900027
3banks busy for write cycles: 1651361
4banks busy for read cycles: 351813
4banks busy for write cycles: 753950
5banks busy for read cycles: 94319
5banks busy for write cycles: 427625
6banks busy for read cycles: 81201
6banks busy for write cycles: 312430
7banks busy for read cycles: 86816
7banks busy for write cycles: 311842
8banks busy for read cycles: 185151
8banks busy for write cycles: 778559

CPU 0 Branch Prediction Accuracy: 99.1917% MPKI: 1.85351 Average ROB Occupancy at Mispredict: 22.0537
Branch types
NOT_BRANCH: 154137311 77.0687%
BRANCH_DIRECT_JUMP: 2061309 1.03065%
BRANCH_INDIRECT: 13234606 6.6173%
BRANCH_CONDITIONAL: 21736759 10.8684%
BRANCH_DIRECT_CALL: 1759418 0.879709%
BRANCH_INDIRECT_CALL: 2655183 1.32759%
BRANCH_RETURN: 4415072 2.20754%
BRANCH_OTHER: 0 0%

DRAM PAGES: 1048576
Allocated PAGES: 5379
