
*** ChampSim Multicore Out-of-Order Simulator ***

Warmup Instructions: 50000000
Simulation Instructions: 200000000
Number of CPUs: 1
LLC sets: 2048
LLC ways: 16
Off-chip DRAM Size: 4096 MB Channels: 1 Width: 64-bit Data Rate: 6400 MT/s
CPU 0 runs traces/spec2k17/client_006.champsimtrace.xz
.xz
BTB has LRU replacement policy
ITLB has LRU replacement policy
DTLB has LRU replacement policy
STLB has LRU replacement policy
L1I has LRU replacement policy
L1D has LRU replacement policy
Initialize SRRIP state for L2C
Initialize DRRIP state for LLC
Heartbeat CPU 0 instructions: 10000000 cycles: 3270768 heartbeat IPC: 3.05739 cumulative IPC: 3.05739 (Simulation time: 0 hr 0 min 57 sec) 
Heartbeat CPU 0 instructions: 20000002 cycles: 6465704 heartbeat IPC: 3.12995 cumulative IPC: 3.09324 (Simulation time: 0 hr 1 min 44 sec) 
Heartbeat CPU 0 instructions: 30000000 cycles: 9248738 heartbeat IPC: 3.5932 cumulative IPC: 3.24369 (Simulation time: 0 hr 2 min 20 sec) 
Heartbeat CPU 0 instructions: 40000001 cycles: 12129828 heartbeat IPC: 3.47091 cumulative IPC: 3.29766 (Simulation time: 0 hr 3 min 8 sec) 
Heartbeat CPU 0 instructions: 50000001 cycles: 15294631 heartbeat IPC: 3.15975 cumulative IPC: 3.26912 (Simulation time: 0 hr 4 min 0 sec) 

Warmup complete CPU 0 instructions: 50000001 cycles: 15294631 (Simulation time: 0 hr 4 min 0 sec) 

Heartbeat CPU 0 instructions: 60000000 cycles: 34330195 heartbeat IPC: 0.525332 cumulative IPC: 0.525332 (Simulation time: 0 hr 4 min 49 sec) 
Heartbeat CPU 0 instructions: 70000000 cycles: 59185043 heartbeat IPC: 0.402336 cumulative IPC: 0.45568 (Simulation time: 0 hr 5 min 50 sec) 
Heartbeat CPU 0 instructions: 80000000 cycles: 77647916 heartbeat IPC: 0.541628 cumulative IPC: 0.481129 (Simulation time: 0 hr 6 min 55 sec) 
Heartbeat CPU 0 instructions: 90000000 cycles: 99154626 heartbeat IPC: 0.464971 cumulative IPC: 0.476985 (Simulation time: 0 hr 7 min 45 sec) 
Heartbeat CPU 0 instructions: 100000002 cycles: 117788470 heartbeat IPC: 0.536658 cumulative IPC: 0.487834 (Simulation time: 0 hr 8 min 46 sec) 
*** Reached end of trace for Core: 0 Repeating trace: traces/spec2k17/client_006.champsimtrace.xz
Heartbeat CPU 0 instructions: 110000000 cycles: 135073142 heartbeat IPC: 0.578547 cumulative IPC: 0.500925 (Simulation time: 0 hr 9 min 49 sec) 
Heartbeat CPU 0 instructions: 120000003 cycles: 152443043 heartbeat IPC: 0.575709 cumulative IPC: 0.510396 (Simulation time: 0 hr 10 min 50 sec) 
Heartbeat CPU 0 instructions: 130000002 cycles: 169998356 heartbeat IPC: 0.569628 cumulative IPC: 0.517118 (Simulation time: 0 hr 11 min 58 sec) 
Heartbeat CPU 0 instructions: 140000002 cycles: 186884458 heartbeat IPC: 0.592203 cumulative IPC: 0.524507 (Simulation time: 0 hr 13 min 2 sec) 
Heartbeat CPU 0 instructions: 150000001 cycles: 208229492 heartbeat IPC: 0.468493 cumulative IPC: 0.51831 (Simulation time: 0 hr 14 min 7 sec) 
Heartbeat CPU 0 instructions: 160000000 cycles: 225962196 heartbeat IPC: 0.56393 cumulative IPC: 0.52215 (Simulation time: 0 hr 15 min 3 sec) 
Heartbeat CPU 0 instructions: 170000000 cycles: 251382661 heartbeat IPC: 0.393384 cumulative IPC: 0.508285 (Simulation time: 0 hr 16 min 10 sec) 
Heartbeat CPU 0 instructions: 180000003 cycles: 270195753 heartbeat IPC: 0.531545 cumulative IPC: 0.510002 (Simulation time: 0 hr 17 min 18 sec) 
Heartbeat CPU 0 instructions: 190000000 cycles: 291279319 heartbeat IPC: 0.474303 cumulative IPC: 0.507275 (Simulation time: 0 hr 18 min 19 sec) 
Heartbeat CPU 0 instructions: 200000000 cycles: 309814168 heartbeat IPC: 0.539524 cumulative IPC: 0.509304 (Simulation time: 0 hr 19 min 31 sec) 
*** Reached end of trace for Core: 0 Repeating trace: traces/spec2k17/client_006.champsimtrace.xz
Heartbeat CPU 0 instructions: 210000003 cycles: 327252129 heartbeat IPC: 0.573462 cumulative IPC: 0.51289 (Simulation time: 0 hr 21 min 37 sec) 
Heartbeat CPU 0 instructions: 220000000 cycles: 344678501 heartbeat IPC: 0.573843 cumulative IPC: 0.516115 (Simulation time: 0 hr 23 min 46 sec) 
Heartbeat CPU 0 instructions: 230000000 cycles: 361336769 heartbeat IPC: 0.600303 cumulative IPC: 0.520168 (Simulation time: 0 hr 26 min 23 sec) 
Heartbeat CPU 0 instructions: 240000002 cycles: 378806298 heartbeat IPC: 0.572425 cumulative IPC: 0.522679 (Simulation time: 0 hr 29 min 10 sec) 
Heartbeat CPU 0 instructions: 250000000 cycles: 399354177 heartbeat IPC: 0.486668 cumulative IPC: 0.520753 (Simulation time: 0 hr 33 min 38 sec) 
Finished CPU 0 instructions: 200000003 cycles: 384059554 cumulative IPC: 0.520753 (Simulation time: 0 hr 33 min 38 sec) 

ChampSim completed all CPUs

Region of Interest Statistics

CPU 0 cumulative IPC: 0.520753 instructions: 200000003 cycles: 384059554
ITLB TOTAL     ACCESS:   31692368  HIT:   31197322  MISS:     495046  HIT %:     98.438  MISS %:    1.56204   MPKI: 2.47523
ITLB LOAD TRANSLATION ACCESS:   31692368  HIT:   31197322  MISS:     495046  HIT %:     98.438  MISS %:    1.56204   MPKI: 2.47523
ITLB PREFETCH  REQUESTED:          0  ISSUED:          0  USEFUL:          0  USELESS:          0
ITLB USEFUL LOAD PREFETCHES:          0 PREFETCH ISSUED TO LOWER LEVEL:          0  ACCURACY: -nan
ITLB TIMELY PREFETCHES:          0 LATE PREFETCHES: 0 DROPPED PREFETCHES: 0
ITLB PREFETCHES SAME FILL-ORIGIN LEVEL: 0 DIFFERENT FILL-ORIGIN LEVEL: 0
ITLB AVERAGE MISS LATENCY: 11.0933 cycles
ITLB RQ	ACCESS:   37644753	FORWARD:          0	MERGED:    5897546	TO_CACHE:   31747207

DTLB TOTAL     ACCESS:   40902110  HIT:   39655628  MISS:    1246482  HIT %:    96.9525  MISS %:    3.04748   MPKI: 6.23241
DTLB LOAD TRANSLATION ACCESS:   40902110  HIT:   39655628  MISS:    1246482  HIT %:    96.9525  MISS %:    3.04748   MPKI: 6.23241
DTLB PREFETCH  REQUESTED:          0  ISSUED:          0  USEFUL:          0  USELESS:          0
DTLB USEFUL LOAD PREFETCHES:          0 PREFETCH ISSUED TO LOWER LEVEL:          0  ACCURACY: -nan
DTLB TIMELY PREFETCHES:          0 LATE PREFETCHES: 0 DROPPED PREFETCHES: 0
DTLB PREFETCHES SAME FILL-ORIGIN LEVEL: 0 DIFFERENT FILL-ORIGIN LEVEL: 0
DTLB AVERAGE MISS LATENCY: 14.8889 cycles
DTLB RQ	ACCESS:   50581645	FORWARD:          0	MERGED:    9616681	TO_CACHE:   40964964

STLB TOTAL     ACCESS:    2487727  HIT:    2396801  MISS:      90926  HIT %:     96.345  MISS %:    3.65498   MPKI: 0.45463
STLB LOAD TRANSLATION ACCESS:    1741528  HIT:    1651403  MISS:      90125  HIT %:    94.8249  MISS %:    5.17505   MPKI: 0.450625
STLB TRANSLATION FROM L1D PREFETCHER ACCESS:     746199  HIT:     745398  MISS:        801  HIT %:    99.8927  MISS %:   0.107344   MPKI: 0.004005
STLB PREFETCH  REQUESTED:          0  ISSUED:          0  USEFUL:        795  USELESS:          6
STLB USEFUL LOAD PREFETCHES:        795 PREFETCH ISSUED TO LOWER LEVEL:          0  ACCURACY: inf
STLB TIMELY PREFETCHES:        795 LATE PREFETCHES: 933 DROPPED PREFETCHES: 906
STLB PREFETCHES SAME FILL-ORIGIN LEVEL: 0 DIFFERENT FILL-ORIGIN LEVEL: 0
STLB AVERAGE MISS LATENCY: 92.9565 cycles
STLB RQ	ACCESS:    2986944	FORWARD:          0	MERGED:     497289	TO_CACHE:    2489655

STLB Hit, L1D data hit: 0
STLB Hit, L2C data hit: 0
STLB Hit, LLC data hit: 0
STLB Hit, LLC data miss: 0
STLB STLB hints to L2: 0
L1D TOTAL     ACCESS:   50584615  HIT:   47890001  MISS:    2694614  HIT %:    94.6731  MISS %:    5.32694   MPKI: 13.4731
L1D LOAD      ACCESS:   33563519  HIT:   31160131  MISS:    2403388  HIT %:    92.8393  MISS %:    7.16072   MPKI: 12.0169
L1D RFO       ACCESS:   16213460  HIT:   15948990  MISS:     264470  HIT %:    98.3688  MISS %:    1.63118   MPKI: 1.32235
L1D PREFETCH  ACCESS:     807636  HIT:     780880  MISS:      26756  HIT %:    96.6871  MISS %:    3.31288   MPKI: 0.13378
AGUS PREFETCH L1 MISS: 0
L1D PREFETCH  REQUESTED:    2524688  ISSUED:    2524670  USEFUL:      24196  USELESS:       2560
L1D USEFUL LOAD PREFETCHES:      24196 PREFETCH ISSUED TO LOWER LEVEL:     348220  ACCURACY: 6.94848
L1D TIMELY PREFETCHES:      24196 LATE PREFETCHES: 321460 DROPPED PREFETCHES: 1019
L1D PREFETCHES SAME FILL-ORIGIN LEVEL: 348220 DIFFERENT FILL-ORIGIN LEVEL: 0
L1D AVERAGE MISS LATENCY: 2.77218e+07 cycles
L1D RQ	ACCESS:   49363123	FORWARD:          0	MERGED:   15329165	TO_CACHE:   33823447
L1D WQ	ACCESS:   17096511	FORWARD:     211040	MERGED:     338313	TO_CACHE:   16758198
L1D PQ	ACCESS:    1279254	FORWARD:          0	MERGED:      33309	TO_CACHE:    1245416

L1D UNIQUE REGIONS ACCESSED: 0
L1D REGIONS CONFLICTS: 0
L1D Cross Page Prefetch Requests: 644485
L1D Same Page Prefetch Requests: 718652
L1D ROI Sum of L1D PQ occupancy: 17369349
L1D PREFETCHES PUSHED FROM L2C: 0
L1I TOTAL     ACCESS:   36775175  HIT:   34327355  MISS:    2447820  HIT %:    93.3438  MISS %:    6.65617   MPKI: 12.2391
L1I LOAD      ACCESS:   36775175  HIT:   34327355  MISS:    2447820  HIT %:    93.3438  MISS %:    6.65617   MPKI: 12.2391
L1I PREFETCH  REQUESTED:          0  ISSUED:          0  USEFUL:          0  USELESS:          0
L1I USEFUL LOAD PREFETCHES:          0 PREFETCH ISSUED TO LOWER LEVEL:          0  ACCURACY: -nan
L1I TIMELY PREFETCHES:          0 LATE PREFETCHES: 0 DROPPED PREFETCHES: 0
L1I PREFETCHES SAME FILL-ORIGIN LEVEL: 0 DIFFERENT FILL-ORIGIN LEVEL: 0
L1I AVERAGE MISS LATENCY: 19.8065 cycles
L1I RQ	ACCESS:   57398058	FORWARD:          0	MERGED:   19753305	TO_CACHE:   37644753

BTB TOTAL     ACCESS:   25851423  HIT:   24123555  MISS:    1727868  HIT %:    93.3162  MISS %:    6.68384   MPKI: 8.63934
BTB BRANCH_DIRECT_JUMP	ACCESS:    1806110  HIT:    1783873  MISS:      22237
BTB BRANCH_INDIRECT	ACCESS:    7197239  HIT:    6432275  MISS:     764964
BTB BRANCH_CONDITIONAL	ACCESS:   11207262  HIT:   11165232  MISS:      42030
BTB BRANCH_DIRECT_CALL	ACCESS:    1904338  HIT:    1877545  MISS:      26793
BTB BRANCH_INDIRECT_CALL	ACCESS:     912580  HIT:     722486  MISS:     190094
BTB BRANCH_RETURN	ACCESS:    2823894  HIT:    2142144  MISS:     681750
BTB BRANCH_OTHER ACCESS:          0  HIT:          0  MISS:          0

L2C TOTAL     ACCESS:    6055220  HIT:    4325716  MISS:    1729504  HIT %:    71.4378  MISS %:    28.5622   MPKI: 8.64752
L2C LOAD      ACCESS:    4529653  HIT:    3378757  MISS:    1150896  HIT %:     74.592  MISS %:     25.408   MPKI: 5.75448
L2C DATA LOAD MPKI: 5.11974
L2C INSTRUCTION LOAD MPKI: 0.63474
L2C RFO       ACCESS:     264459  HIT:      80184  MISS:     184275  HIT %:      30.32  MISS %:      69.68   MPKI: 0.921375
L2C PREFETCH  ACCESS:     348220  HIT:      16300  MISS:     331920  HIT %:    4.68095  MISS %:    95.3191   MPKI: 1.6596
AGUS PREFETCH L1 MISS: 0
L2C DATA PREFETCH MPKI: 1.6596
L2C INSTRUCTION PREFETCH MPKI: 0
L2C WRITEBACK ACCESS:     810297  HIT:     795312  MISS:      14985  HIT %:    98.1507  MISS %:    1.84932   MPKI: 0.074925
L2C LOAD TRANSLATION ACCESS:      99430  HIT:      52512  MISS:      46918  HIT %:     52.813  MISS %:     47.187   MPKI: 0.23459
L2C TRANSLATION FROM L1D PREFETCHER ACCESS:       3161  HIT:       2651  MISS:        510  HIT %:    83.8659  MISS %:    16.1341   MPKI: 0.00255
L2C PREFETCH  REQUESTED:          0  ISSUED:          0  USEFUL:       1048  USELESS:     331382
L2C USEFUL LOAD PREFETCHES:       1048 PREFETCH ISSUED TO LOWER LEVEL:     331920  ACCURACY: 0.315739
L2C TIMELY PREFETCHES:       1048 LATE PREFETCHES: 0 DROPPED PREFETCHES: 0
L2C PREFETCHES SAME FILL-ORIGIN LEVEL: 0 DIFFERENT FILL-ORIGIN LEVEL: 0
L2C AVERAGE MISS LATENCY: 119.048 cycles
L2C RQ	ACCESS:    4896804	FORWARD:          0	MERGED:          0	TO_CACHE:    4896703
L2C WQ	ACCESS:     810297	FORWARD:        101	MERGED:          0	TO_CACHE:     810297
L2C PQ	ACCESS:     348220	FORWARD:          0	MERGED:          0	TO_CACHE:     348220

L2C Instructions Evicting Data 106952
L2C Translations Evicting Data 41423
L2C Data Evicting Data 1392269
L2C Instructions Evicting Instructions 15617
L2C Translations Evicting Instructions 4585
L2C Data Evicting Instructions 106405
L2C Instructions Evicting Translations 4379
L2C Translations Evicting Translations 1420
L2C Data Evicting Translations 41469
L2C Dense regions hint from L2: 0
PSCL5 TOTAL     ACCESS:      91837  HIT:      91837  MISS:          0  HIT %:        100  MISS %:          0   MPKI: 0
PSCL5 LOAD TRANSLATION ACCESS:      89197  HIT:      89197  MISS:          0  HIT %:        100  MISS %:          0   MPKI: 0
PSCL5 TRANSLATION FROM L1D PREFETCHER ACCESS:       2640  HIT:       2640  MISS:          0  HIT %:        100  MISS %:          0   MPKI: 0
PSCL5 PREFETCH  REQUESTED:          0  ISSUED:          0  USEFUL:          0  USELESS:          0
PSCL5 USEFUL LOAD PREFETCHES:          0 PREFETCH ISSUED TO LOWER LEVEL:          0  ACCURACY: -nan
PSCL5 TIMELY PREFETCHES:          0 LATE PREFETCHES: 0 DROPPED PREFETCHES: 0
PSCL5 PREFETCHES SAME FILL-ORIGIN LEVEL: 0 DIFFERENT FILL-ORIGIN LEVEL: 0

PSCL4 TOTAL     ACCESS:      84722  HIT:      84612  MISS:        110  HIT %:    99.8702  MISS %:   0.129836   MPKI: 0.00055
PSCL4 LOAD TRANSLATION ACCESS:      82250  HIT:      82140  MISS:        110  HIT %:    99.8663  MISS %:   0.133739   MPKI: 0.00055
PSCL4 TRANSLATION FROM L1D PREFETCHER ACCESS:       2472  HIT:       2472  MISS:          0  HIT %:        100  MISS %:          0   MPKI: 0
PSCL4 PREFETCH  REQUESTED:          0  ISSUED:          0  USEFUL:          0  USELESS:          0
PSCL4 USEFUL LOAD PREFETCHES:          0 PREFETCH ISSUED TO LOWER LEVEL:          0  ACCURACY: -nan
PSCL4 TIMELY PREFETCHES:          0 LATE PREFETCHES: 0 DROPPED PREFETCHES: 0
PSCL4 PREFETCHES SAME FILL-ORIGIN LEVEL: 0 DIFFERENT FILL-ORIGIN LEVEL: 0

PSCL3 TOTAL     ACCESS:      91622  HIT:      91333  MISS:        289  HIT %:    99.6846  MISS %:   0.315426   MPKI: 0.001445
PSCL3 LOAD TRANSLATION ACCESS:      89021  HIT:      88732  MISS:        289  HIT %:    99.6754  MISS %:   0.324643   MPKI: 0.001445
PSCL3 TRANSLATION FROM L1D PREFETCHER ACCESS:       2601  HIT:       2601  MISS:          0  HIT %:        100  MISS %:          0   MPKI: 0
PSCL3 PREFETCH  REQUESTED:          0  ISSUED:          0  USEFUL:          0  USELESS:          0
PSCL3 USEFUL LOAD PREFETCHES:          0 PREFETCH ISSUED TO LOWER LEVEL:          0  ACCURACY: -nan
PSCL3 TIMELY PREFETCHES:          0 LATE PREFETCHES: 0 DROPPED PREFETCHES: 0
PSCL3 PREFETCHES SAME FILL-ORIGIN LEVEL: 0 DIFFERENT FILL-ORIGIN LEVEL: 0

PSCL2 TOTAL     ACCESS:      91045  HIT:      81158  MISS:       9887  HIT %:    89.1405  MISS %:    10.8595   MPKI: 0.049435
PSCL2 LOAD TRANSLATION ACCESS:      89225  HIT:      79338  MISS:       9887  HIT %:     88.919  MISS %:     11.081   MPKI: 0.049435
PSCL2 TRANSLATION FROM L1D PREFETCHER ACCESS:       1820  HIT:       1820  MISS:          0  HIT %:        100  MISS %:          0   MPKI: 0
PSCL2 PREFETCH  REQUESTED:          0  ISSUED:          0  USEFUL:          0  USELESS:          0
PSCL2 USEFUL LOAD PREFETCHES:          0 PREFETCH ISSUED TO LOWER LEVEL:          0  ACCURACY: -nan
PSCL2 TIMELY PREFETCHES:          0 LATE PREFETCHES: 0 DROPPED PREFETCHES: 0
PSCL2 PREFETCHES SAME FILL-ORIGIN LEVEL: 0 DIFFERENT FILL-ORIGIN LEVEL: 0

LLC TOTAL     ACCESS:    2205818  HIT:    1254643  MISS:     951175  HIT %:    56.8788  MISS %:    43.1212   MPKI: 4.75587
LLC LOAD      ACCESS:    1150896  HIT:     426915  MISS:     723981  HIT %:    37.0941  MISS %:    62.9059   MPKI: 3.6199
LLC RFO       ACCESS:     184275  HIT:      22609  MISS:     161666  HIT %:    12.2692  MISS %:    87.7308   MPKI: 0.80833
LLC PREFETCH  ACCESS:     331920  HIT:     319943  MISS:      11977  HIT %:    96.3916  MISS %:     3.6084   MPKI: 0.059885
AGUS PREFETCH L1 MISS: 0
LLC WRITEBACK ACCESS:     491299  HIT:     462316  MISS:      28983  HIT %:    94.1007  MISS %:    5.89926   MPKI: 0.144915
LLC LOAD TRANSLATION ACCESS:      46918  HIT:      22456  MISS:      24462  HIT %:    47.8622  MISS %:    52.1378   MPKI: 0.12231
LLC TRANSLATION FROM L1D PREFETCHER ACCESS:        510  HIT:        404  MISS:        106  HIT %:    79.2157  MISS %:    20.7843   MPKI: 0.00053
LLC PREFETCH  REQUESTED:          0  ISSUED:          0  USEFUL:       2113  USELESS:       9969
LLC USEFUL LOAD PREFETCHES:       2113 PREFETCH ISSUED TO LOWER LEVEL:      11977  ACCURACY: 17.6421
LLC TIMELY PREFETCHES:       2113 LATE PREFETCHES: 0 DROPPED PREFETCHES: 0
LLC PREFETCHES SAME FILL-ORIGIN LEVEL: 0 DIFFERENT FILL-ORIGIN LEVEL: 0
LLC AVERAGE MISS LATENCY: 162.344 cycles
LLC RQ	ACCESS:    1382599	FORWARD:          0	MERGED:          0	TO_CACHE:    1382599
LLC WQ	ACCESS:     491299	FORWARD:          0	MERGED:          0	TO_CACHE:     491299
LLC PQ	ACCESS:     331920	FORWARD:          0	MERGED:          0	TO_CACHE:     331920

LLC Dense regions hint to LLC: 0

RAW hits: 2669356
Loads Generated: 52032481
Loads sent to L1D: 49363123
Stores Generated: 17096501
Stores sent to L1D: 17096511
Major fault: 0 Minor fault: 10830
Allocated PAGES: 10830
Completed 
Accuracy : 87.3313
Number of unique groups: 8418910

DRAM Statistics
 CHANNEL 0
 RQ ROW_BUFFER_HIT:     192892  ROW_BUFFER_MISS:     729283
 DBUS_CONGESTED:        332
 WQ ROW_BUFFER_HIT:     115794  ROW_BUFFER_MISS:     322412  FULL:          0

 AVG_CONGESTED_CYCLE: 4
 All warmup complete: 2
Channel 0 Bank busy for read cycles: 0
Channel 0 Bank busy for write cycles: 0
Channel 0
Rank 0
0banks busy for read cycles: 254299247
0banks busy for write cycles: 179015
1banks busy for read cycles: 62268569
1banks busy for write cycles: 27228109
2banks busy for read cycles: 12880354
2banks busy for write cycles: 9189274
3banks busy for read cycles: 4226383
3banks busy for write cycles: 4047117
4banks busy for read cycles: 1303956
4banks busy for write cycles: 2035003
5banks busy for read cycles: 462651
5banks busy for write cycles: 1032987
6banks busy for read cycles: 356593
6banks busy for write cycles: 571640
7banks busy for read cycles: 269549
7banks busy for write cycles: 494140
8banks busy for read cycles: 866817
8banks busy for write cycles: 2348151

CPU 0 Branch Prediction Accuracy: 99.0203% MPKI: 1.6776 Average ROB Occupancy at Mispredict: 39.7244
Branch types
NOT_BRANCH: 165753023 82.8765%
BRANCH_DIRECT_JUMP: 1806110 0.903055%
BRANCH_INDIRECT: 7197239 3.59862%
BRANCH_CONDITIONAL: 19602510 9.80125%
BRANCH_DIRECT_CALL: 1904338 0.952169%
BRANCH_INDIRECT_CALL: 912580 0.45629%
BRANCH_RETURN: 2823894 1.41195%
BRANCH_OTHER: 0 0%

DRAM PAGES: 1048576
Allocated PAGES: 10830
