
*** ChampSim Multicore Out-of-Order Simulator ***

Warmup Instructions: 50000000
Simulation Instructions: 200000000
Number of CPUs: 1
LLC sets: 2048
LLC ways: 16
Off-chip DRAM Size: 4096 MB Channels: 1 Width: 64-bit Data Rate: 6400 MT/s
CPU 0 runs traces/spec2k17/client_002.champsimtrace.xz
.xz
BTB has LRU replacement policy
ITLB has LRU replacement policy
DTLB has LRU replacement policy
STLB has LRU replacement policy
L1I has LRU replacement policy
L1D has LRU replacement policy
Initialize SRRIP state for L2C
Initialize DRRIP state for LLC
Heartbeat CPU 0 instructions: 10000002 cycles: 2799680 heartbeat IPC: 3.57184 cumulative IPC: 3.57184 (Simulation time: 0 hr 0 min 45 sec) 
Heartbeat CPU 0 instructions: 20000002 cycles: 5612278 heartbeat IPC: 3.55543 cumulative IPC: 3.56362 (Simulation time: 0 hr 1 min 33 sec) 
Heartbeat CPU 0 instructions: 30000000 cycles: 8405996 heartbeat IPC: 3.57946 cumulative IPC: 3.56888 (Simulation time: 0 hr 2 min 18 sec) 
Heartbeat CPU 0 instructions: 40000003 cycles: 11221111 heartbeat IPC: 3.55225 cumulative IPC: 3.56471 (Simulation time: 0 hr 2 min 56 sec) 
Heartbeat CPU 0 instructions: 50000001 cycles: 14035430 heartbeat IPC: 3.55326 cumulative IPC: 3.56241 (Simulation time: 0 hr 3 min 33 sec) 

Warmup complete CPU 0 instructions: 50000001 cycles: 14035430 (Simulation time: 0 hr 3 min 33 sec) 

Heartbeat CPU 0 instructions: 60000001 cycles: 29854504 heartbeat IPC: 0.632148 cumulative IPC: 0.632148 (Simulation time: 0 hr 4 min 19 sec) 
Heartbeat CPU 0 instructions: 70000002 cycles: 45690029 heartbeat IPC: 0.631492 cumulative IPC: 0.63182 (Simulation time: 0 hr 5 min 6 sec) 
Heartbeat CPU 0 instructions: 80000000 cycles: 61248896 heartbeat IPC: 0.64272 cumulative IPC: 0.635412 (Simulation time: 0 hr 5 min 47 sec) 
Heartbeat CPU 0 instructions: 90000000 cycles: 78102890 heartbeat IPC: 0.593331 cumulative IPC: 0.624342 (Simulation time: 0 hr 6 min 36 sec) 
Heartbeat CPU 0 instructions: 100000002 cycles: 94120272 heartbeat IPC: 0.624322 cumulative IPC: 0.624338 (Simulation time: 0 hr 7 min 16 sec) 
*** Reached end of trace for Core: 0 Repeating trace: traces/spec2k17/client_002.champsimtrace.xz
Heartbeat CPU 0 instructions: 110000000 cycles: 110294509 heartbeat IPC: 0.618267 cumulative IPC: 0.623318 (Simulation time: 0 hr 8 min 8 sec) 
Heartbeat CPU 0 instructions: 120000000 cycles: 126256797 heartbeat IPC: 0.626477 cumulative IPC: 0.623767 (Simulation time: 0 hr 8 min 57 sec) 
Heartbeat CPU 0 instructions: 130000003 cycles: 141692774 heartbeat IPC: 0.647837 cumulative IPC: 0.626678 (Simulation time: 0 hr 9 min 46 sec) 
Heartbeat CPU 0 instructions: 140000002 cycles: 157339248 heartbeat IPC: 0.639122 cumulative IPC: 0.628036 (Simulation time: 0 hr 10 min 38 sec) 
Heartbeat CPU 0 instructions: 150000002 cycles: 173072234 heartbeat IPC: 0.635607 cumulative IPC: 0.628785 (Simulation time: 0 hr 11 min 31 sec) 
Heartbeat CPU 0 instructions: 160000000 cycles: 188714588 heartbeat IPC: 0.63929 cumulative IPC: 0.629726 (Simulation time: 0 hr 12 min 20 sec) 
Heartbeat CPU 0 instructions: 170000000 cycles: 204285869 heartbeat IPC: 0.642208 cumulative IPC: 0.630748 (Simulation time: 0 hr 13 min 9 sec) 
Heartbeat CPU 0 instructions: 180000001 cycles: 220034278 heartbeat IPC: 0.634985 cumulative IPC: 0.631072 (Simulation time: 0 hr 13 min 58 sec) 
Heartbeat CPU 0 instructions: 190000000 cycles: 236018766 heartbeat IPC: 0.625606 cumulative IPC: 0.630678 (Simulation time: 0 hr 14 min 48 sec) 
Heartbeat CPU 0 instructions: 200000000 cycles: 252588072 heartbeat IPC: 0.603526 cumulative IPC: 0.628792 (Simulation time: 0 hr 15 min 39 sec) 
*** Reached end of trace for Core: 0 Repeating trace: traces/spec2k17/client_002.champsimtrace.xz
Heartbeat CPU 0 instructions: 210000002 cycles: 268783041 heartbeat IPC: 0.617476 cumulative IPC: 0.628073 (Simulation time: 0 hr 16 min 28 sec) 
Heartbeat CPU 0 instructions: 220000000 cycles: 284248127 heartbeat IPC: 0.646618 cumulative IPC: 0.629134 (Simulation time: 0 hr 17 min 20 sec) 
Heartbeat CPU 0 instructions: 230000000 cycles: 299769808 heartbeat IPC: 0.64426 cumulative IPC: 0.629956 (Simulation time: 0 hr 18 min 11 sec) 
Heartbeat CPU 0 instructions: 240000003 cycles: 315491406 heartbeat IPC: 0.636068 cumulative IPC: 0.630274 (Simulation time: 0 hr 19 min 3 sec) 
Heartbeat CPU 0 instructions: 250000003 cycles: 331083700 heartbeat IPC: 0.641342 cumulative IPC: 0.630819 (Simulation time: 0 hr 19 min 56 sec) 
Finished CPU 0 instructions: 200000002 cycles: 317048270 cumulative IPC: 0.630819 (Simulation time: 0 hr 19 min 56 sec) 

ChampSim completed all CPUs

Region of Interest Statistics

CPU 0 cumulative IPC: 0.630819 instructions: 200000002 cycles: 317048270
ITLB TOTAL     ACCESS:   33366429  HIT:   32927437  MISS:     438992  HIT %:    98.6843  MISS %:    1.31567   MPKI: 2.19496
ITLB LOAD TRANSLATION ACCESS:   33366429  HIT:   32927437  MISS:     438992  HIT %:    98.6843  MISS %:    1.31567   MPKI: 2.19496
ITLB PREFETCH  REQUESTED:          0  ISSUED:          0  USEFUL:          0  USELESS:          0
ITLB USEFUL LOAD PREFETCHES:          0 PREFETCH ISSUED TO LOWER LEVEL:          0  ACCURACY: -nan
ITLB TIMELY PREFETCHES:          0 LATE PREFETCHES: 0 DROPPED PREFETCHES: 0
ITLB PREFETCHES SAME FILL-ORIGIN LEVEL: 0 DIFFERENT FILL-ORIGIN LEVEL: 0
ITLB AVERAGE MISS LATENCY: 9.43683 cycles
ITLB RQ	ACCESS:   39505186	FORWARD:          0	MERGED:    5994531	TO_CACHE:   33510655

DTLB TOTAL     ACCESS:   39093610  HIT:   38479556  MISS:     614054  HIT %:    98.4293  MISS %:    1.57073   MPKI: 3.07027
DTLB LOAD TRANSLATION ACCESS:   39093610  HIT:   38479556  MISS:     614054  HIT %:    98.4293  MISS %:    1.57073   MPKI: 3.07027
DTLB PREFETCH  REQUESTED:          0  ISSUED:          0  USEFUL:          0  USELESS:          0
DTLB USEFUL LOAD PREFETCHES:          0 PREFETCH ISSUED TO LOWER LEVEL:          0  ACCURACY: -nan
DTLB TIMELY PREFETCHES:          0 LATE PREFETCHES: 0 DROPPED PREFETCHES: 0
DTLB PREFETCHES SAME FILL-ORIGIN LEVEL: 0 DIFFERENT FILL-ORIGIN LEVEL: 0
DTLB AVERAGE MISS LATENCY: 10.4699 cycles
DTLB RQ	ACCESS:   54231361	FORWARD:          0	MERGED:   15083274	TO_CACHE:   39148087

STLB TOTAL     ACCESS:    2022192  HIT:    1988917  MISS:      33275  HIT %:    98.3545  MISS %:    1.64549   MPKI: 0.166375
STLB LOAD TRANSLATION ACCESS:    1053046  HIT:    1019953  MISS:      33093  HIT %:    96.8574  MISS %:     3.1426   MPKI: 0.165465
STLB TRANSLATION FROM L1D PREFETCHER ACCESS:     969146  HIT:     968964  MISS:        182  HIT %:    99.9812  MISS %:  0.0187794   MPKI: 0.00091
STLB PREFETCH  REQUESTED:          0  ISSUED:          0  USEFUL:         95  USELESS:         87
STLB USEFUL LOAD PREFETCHES:         95 PREFETCH ISSUED TO LOWER LEVEL:          0  ACCURACY: inf
STLB TIMELY PREFETCHES:         95 LATE PREFETCHES: 181 DROPPED PREFETCHES: 1541
STLB PREFETCHES SAME FILL-ORIGIN LEVEL: 0 DIFFERENT FILL-ORIGIN LEVEL: 0
STLB AVERAGE MISS LATENCY: 33.2023 cycles
STLB RQ	ACCESS:    2432087	FORWARD:          0	MERGED:     408173	TO_CACHE:    2023914

STLB Hit, L1D data hit: 0
STLB Hit, L2C data hit: 0
STLB Hit, LLC data hit: 0
STLB Hit, LLC data miss: 0
STLB STLB hints to L2: 0
L1D TOTAL     ACCESS:   54678333  HIT:   53758636  MISS:     919697  HIT %:     98.318  MISS %:    1.68201   MPKI: 4.59848
L1D LOAD      ACCESS:   28493344  HIT:   27945680  MISS:     547664  HIT %:    98.0779  MISS %:    1.92208   MPKI: 2.73832
L1D RFO       ACCESS:   24809548  HIT:   24441147  MISS:     368401  HIT %:    98.5151  MISS %:    1.48492   MPKI: 1.842
L1D PREFETCH  ACCESS:    1375441  HIT:    1371809  MISS:       3632  HIT %:    99.7359  MISS %:   0.264061   MPKI: 0.01816
AGUS PREFETCH L1 MISS: 0
L1D PREFETCH  REQUESTED:    2807905  ISSUED:    2807905  USEFUL:       1052  USELESS:       2575
L1D USEFUL LOAD PREFETCHES:       1052 PREFETCH ISSUED TO LOWER LEVEL:       4140  ACCURACY: 25.4106
L1D TIMELY PREFETCHES:       1052 LATE PREFETCHES: 508 DROPPED PREFETCHES: 1669
L1D PREFETCHES SAME FILL-ORIGIN LEVEL: 4140 DIFFERENT FILL-ORIGIN LEVEL: 0
L1D AVERAGE MISS LATENCY: 132962 cycles
L1D RQ	ACCESS:   45635372	FORWARD:          0	MERGED:   16379047	TO_CACHE:   28540186
L1D WQ	ACCESS:   26301615	FORWARD:     721600	MERGED:     610440	TO_CACHE:   25691175
L1D PQ	ACCESS:    1428864	FORWARD:          0	MERGED:      44362	TO_CACHE:    1379041

L1D UNIQUE REGIONS ACCESSED: 0
L1D REGIONS CONFLICTS: 0
L1D Cross Page Prefetch Requests: 924111
L1D Same Page Prefetch Requests: 512196
L1D ROI Sum of L1D PQ occupancy: 19128125
L1D PREFETCHES PUSHED FROM L2C: 0
L1I TOTAL     ACCESS:   39090269  HIT:   37293419  MISS:    1796850  HIT %:    95.4033  MISS %:    4.59667   MPKI: 8.98425
L1I LOAD      ACCESS:   39090269  HIT:   37293419  MISS:    1796850  HIT %:    95.4033  MISS %:    4.59667   MPKI: 8.98425
L1I PREFETCH  REQUESTED:          0  ISSUED:          0  USEFUL:          0  USELESS:          0
L1I USEFUL LOAD PREFETCHES:          0 PREFETCH ISSUED TO LOWER LEVEL:          0  ACCURACY: -nan
L1I TIMELY PREFETCHES:          0 LATE PREFETCHES: 0 DROPPED PREFETCHES: 0
L1I PREFETCHES SAME FILL-ORIGIN LEVEL: 0 DIFFERENT FILL-ORIGIN LEVEL: 0
L1I AVERAGE MISS LATENCY: 19.6151 cycles
L1I RQ	ACCESS:   60708575	FORWARD:          0	MERGED:   21203389	TO_CACHE:   39505186

BTB TOTAL     ACCESS:   30231228  HIT:   27084386  MISS:    3146842  HIT %:    89.5908  MISS %:    10.4092   MPKI: 15.7342
BTB BRANCH_DIRECT_JUMP	ACCESS:    1998705  HIT:    1920221  MISS:      78484
BTB BRANCH_INDIRECT	ACCESS:    8495012  HIT:    7557989  MISS:     937023
BTB BRANCH_CONDITIONAL	ACCESS:   11359976  HIT:   11215254  MISS:     144722
BTB BRANCH_DIRECT_CALL	ACCESS:    3711340  HIT:    3545021  MISS:     166319
BTB BRANCH_INDIRECT_CALL	ACCESS:     476971  HIT:     364345  MISS:     112626
BTB BRANCH_RETURN	ACCESS:    4189224  HIT:    2481556  MISS:    1707668
BTB BRANCH_OTHER ACCESS:          0  HIT:          0  MISS:          0

L2C TOTAL     ACCESS:    3204502  HIT:    2498970  MISS:     705532  HIT %:    77.9831  MISS %:    22.0169   MPKI: 3.52766
L2C LOAD      ACCESS:    2343994  HIT:    1895108  MISS:     448886  HIT %:    80.8495  MISS %:    19.1505   MPKI: 2.24443
L2C DATA LOAD MPKI: 0.866715
L2C INSTRUCTION LOAD MPKI: 1.37771
L2C RFO       ACCESS:     368388  HIT:     136587  MISS:     231801  HIT %:    37.0769  MISS %:    62.9231   MPKI: 1.159
L2C PREFETCH  ACCESS:       4140  HIT:       2191  MISS:       1949  HIT %:    52.9227  MISS %:    47.0773   MPKI: 0.009745
AGUS PREFETCH L1 MISS: 0
L2C DATA PREFETCH MPKI: 0.009745
L2C INSTRUCTION PREFETCH MPKI: 0
L2C WRITEBACK ACCESS:     451931  HIT:     435674  MISS:      16257  HIT %:    96.4028  MISS %:    3.59723   MPKI: 0.081285
L2C LOAD TRANSLATION ACCESS:      33758  HIT:      27700  MISS:       6058  HIT %:    82.0546  MISS %:    17.9454   MPKI: 0.03029
L2C TRANSLATION FROM L1D PREFETCHER ACCESS:       2291  HIT:       1710  MISS:        581  HIT %:    74.6399  MISS %:    25.3601   MPKI: 0.002905
L2C PREFETCH  REQUESTED:          0  ISSUED:          0  USEFUL:        542  USELESS:       1980
L2C USEFUL LOAD PREFETCHES:        542 PREFETCH ISSUED TO LOWER LEVEL:       1949  ACCURACY: 27.8091
L2C TIMELY PREFETCHES:        542 LATE PREFETCHES: 0 DROPPED PREFETCHES: 0
L2C PREFETCHES SAME FILL-ORIGIN LEVEL: 0 DIFFERENT FILL-ORIGIN LEVEL: 0
L2C AVERAGE MISS LATENCY: 64.6673 cycles
L2C RQ	ACCESS:    2748456	FORWARD:          0	MERGED:          0	TO_CACHE:    2748431
L2C WQ	ACCESS:     451931	FORWARD:         25	MERGED:          0	TO_CACHE:     451931
L2C PQ	ACCESS:       4140	FORWARD:          0	MERGED:          0	TO_CACHE:       4140

L2C Instructions Evicting Data 165875
L2C Translations Evicting Data 3960
L2C Data Evicting Data 243434
L2C Instructions Evicting Instructions 107191
L2C Translations Evicting Instructions 2565
L2C Data Evicting Instructions 159764
L2C Instructions Evicting Translations 2477
L2C Translations Evicting Translations 114
L2C Data Evicting Translations 3895
L2C Dense regions hint from L2: 0
PSCL5 TOTAL     ACCESS:      34816  HIT:      34816  MISS:          0  HIT %:        100  MISS %:          0   MPKI: 0
PSCL5 LOAD TRANSLATION ACCESS:      32912  HIT:      32912  MISS:          0  HIT %:        100  MISS %:          0   MPKI: 0
PSCL5 TRANSLATION FROM L1D PREFETCHER ACCESS:       1904  HIT:       1904  MISS:          0  HIT %:        100  MISS %:          0   MPKI: 0
PSCL5 PREFETCH  REQUESTED:          0  ISSUED:          0  USEFUL:          0  USELESS:          0
PSCL5 USEFUL LOAD PREFETCHES:          0 PREFETCH ISSUED TO LOWER LEVEL:          0  ACCURACY: -nan
PSCL5 TIMELY PREFETCHES:          0 LATE PREFETCHES: 0 DROPPED PREFETCHES: 0
PSCL5 PREFETCHES SAME FILL-ORIGIN LEVEL: 0 DIFFERENT FILL-ORIGIN LEVEL: 0

PSCL4 TOTAL     ACCESS:      34482  HIT:      34482  MISS:          0  HIT %:        100  MISS %:          0   MPKI: 0
PSCL4 LOAD TRANSLATION ACCESS:      32912  HIT:      32912  MISS:          0  HIT %:        100  MISS %:          0   MPKI: 0
PSCL4 TRANSLATION FROM L1D PREFETCHER ACCESS:       1570  HIT:       1570  MISS:          0  HIT %:        100  MISS %:          0   MPKI: 0
PSCL4 PREFETCH  REQUESTED:          0  ISSUED:          0  USEFUL:          0  USELESS:          0
PSCL4 USEFUL LOAD PREFETCHES:          0 PREFETCH ISSUED TO LOWER LEVEL:          0  ACCURACY: -nan
PSCL4 TIMELY PREFETCHES:          0 LATE PREFETCHES: 0 DROPPED PREFETCHES: 0
PSCL4 PREFETCHES SAME FILL-ORIGIN LEVEL: 0 DIFFERENT FILL-ORIGIN LEVEL: 0

PSCL3 TOTAL     ACCESS:      34284  HIT:      34244  MISS:         40  HIT %:    99.8833  MISS %:   0.116673   MPKI: 0.0002
PSCL3 LOAD TRANSLATION ACCESS:      32804  HIT:      32764  MISS:         40  HIT %:    99.8781  MISS %:   0.121936   MPKI: 0.0002
PSCL3 TRANSLATION FROM L1D PREFETCHER ACCESS:       1480  HIT:       1480  MISS:          0  HIT %:        100  MISS %:          0   MPKI: 0
PSCL3 PREFETCH  REQUESTED:          0  ISSUED:          0  USEFUL:          0  USELESS:          0
PSCL3 USEFUL LOAD PREFETCHES:          0 PREFETCH ISSUED TO LOWER LEVEL:          0  ACCURACY: -nan
PSCL3 TIMELY PREFETCHES:          0 LATE PREFETCHES: 0 DROPPED PREFETCHES: 0
PSCL3 PREFETCHES SAME FILL-ORIGIN LEVEL: 0 DIFFERENT FILL-ORIGIN LEVEL: 0

PSCL2 TOTAL     ACCESS:      33979  HIT:      33170  MISS:        809  HIT %:    97.6191  MISS %:    2.38088   MPKI: 0.004045
PSCL2 LOAD TRANSLATION ACCESS:      32912  HIT:      32103  MISS:        809  HIT %:    97.5419  MISS %:    2.45807   MPKI: 0.004045
PSCL2 TRANSLATION FROM L1D PREFETCHER ACCESS:       1067  HIT:       1067  MISS:          0  HIT %:        100  MISS %:          0   MPKI: 0
PSCL2 PREFETCH  REQUESTED:          0  ISSUED:          0  USEFUL:          0  USELESS:          0
PSCL2 USEFUL LOAD PREFETCHES:          0 PREFETCH ISSUED TO LOWER LEVEL:          0  ACCURACY: -nan
PSCL2 TIMELY PREFETCHES:          0 LATE PREFETCHES: 0 DROPPED PREFETCHES: 0
PSCL2 PREFETCHES SAME FILL-ORIGIN LEVEL: 0 DIFFERENT FILL-ORIGIN LEVEL: 0

LLC TOTAL     ACCESS:     943752  HIT:     753118  MISS:     190634  HIT %:    79.8004  MISS %:    20.1996   MPKI: 0.95317
LLC LOAD      ACCESS:     448886  HIT:     385642  MISS:      63244  HIT %:    85.9109  MISS %:    14.0891   MPKI: 0.31622
LLC RFO       ACCESS:     231801  HIT:     107522  MISS:     124279  HIT %:    46.3855  MISS %:    53.6145   MPKI: 0.621395
LLC PREFETCH  ACCESS:       1949  HIT:       1781  MISS:        168  HIT %:    91.3802  MISS %:    8.61981   MPKI: 0.00084
AGUS PREFETCH L1 MISS: 0
LLC WRITEBACK ACCESS:     254477  HIT:     252495  MISS:       1982  HIT %:    99.2211  MISS %:   0.778852   MPKI: 0.00991
LLC LOAD TRANSLATION ACCESS:       6058  HIT:       5124  MISS:        934  HIT %:    84.5824  MISS %:    15.4176   MPKI: 0.00467
LLC TRANSLATION FROM L1D PREFETCHER ACCESS:        581  HIT:        554  MISS:         27  HIT %:    95.3528  MISS %:    4.64716   MPKI: 0.000135
LLC PREFETCH  REQUESTED:          0  ISSUED:          0  USEFUL:         19  USELESS:         89
LLC USEFUL LOAD PREFETCHES:         19 PREFETCH ISSUED TO LOWER LEVEL:        168  ACCURACY: 11.3095
LLC TIMELY PREFETCHES:         19 LATE PREFETCHES: 0 DROPPED PREFETCHES: 0
LLC PREFETCHES SAME FILL-ORIGIN LEVEL: 0 DIFFERENT FILL-ORIGIN LEVEL: 0
LLC AVERAGE MISS LATENCY: 130.686 cycles
LLC RQ	ACCESS:     687326	FORWARD:          0	MERGED:          0	TO_CACHE:     687326
LLC WQ	ACCESS:     254477	FORWARD:          0	MERGED:          0	TO_CACHE:     254477
LLC PQ	ACCESS:       1949	FORWARD:          0	MERGED:          0	TO_CACHE:       1949

LLC Dense regions hint to LLC: 0

RAW hits: 4838117
Loads Generated: 50473486
Loads sent to L1D: 45635372
Stores Generated: 26301595
Stores sent to L1D: 26301615
Major fault: 0 Minor fault: 3152
Allocated PAGES: 3152
Completed 
Accuracy : 85.7677
Number of unique groups: 2842532

DRAM Statistics
 CHANNEL 0
 RQ ROW_BUFFER_HIT:      87101  ROW_BUFFER_MISS:     101551
 DBUS_CONGESTED:        184
 WQ ROW_BUFFER_HIT:      22621  ROW_BUFFER_MISS:     106353  FULL:          0

 AVG_CONGESTED_CYCLE: 5
 All warmup complete: 2
Channel 0 Bank busy for read cycles: 0
Channel 0 Bank busy for write cycles: 0
Channel 0
Rank 0
0banks busy for read cycles: 292811493
0banks busy for write cycles: 55384
1banks busy for read cycles: 11457044
1banks busy for write cycles: 8056638
2banks busy for read cycles: 928340
2banks busy for write cycles: 1197503
3banks busy for read cycles: 327201
3banks busy for write cycles: 275091
4banks busy for read cycles: 115298
4banks busy for write cycles: 146421
5banks busy for read cycles: 84492
5banks busy for write cycles: 115602
6banks busy for read cycles: 98188
6banks busy for write cycles: 113655
7banks busy for read cycles: 135315
7banks busy for write cycles: 171223
8banks busy for read cycles: 360621
8banks busy for write cycles: 598762

CPU 0 Branch Prediction Accuracy: 99.6381% MPKI: 0.661605 Average ROB Occupancy at Mispredict: 23.542
Branch types
NOT_BRANCH: 163436879 81.7184%
BRANCH_DIRECT_JUMP: 1998705 0.999352%
BRANCH_INDIRECT: 8495012 4.24751%
BRANCH_CONDITIONAL: 17691516 8.84576%
BRANCH_DIRECT_CALL: 3711340 1.85567%
BRANCH_INDIRECT_CALL: 476971 0.238485%
BRANCH_RETURN: 4189224 2.09461%
BRANCH_OTHER: 0 0%

DRAM PAGES: 1048576
Allocated PAGES: 3152
