
*** ChampSim Multicore Out-of-Order Simulator ***

Warmup Instructions: 50000000
Simulation Instructions: 200000000
Number of CPUs: 1
LLC sets: 2048
LLC ways: 16
Off-chip DRAM Size: 4096 MB Channels: 1 Width: 64-bit Data Rate: 6400 MT/s
CPU 0 runs traces/spec2k17/client_007.champsimtrace.xz
.xz
BTB has LRU replacement policy
ITLB has LRU replacement policy
DTLB has LRU replacement policy
STLB has LRU replacement policy
L1I has LRU replacement policy
L1D has LRU replacement policy
Initialize SRRIP state for L2C
Initialize DRRIP state for LLC
Heartbeat CPU 0 instructions: 10000002 cycles: 2985048 heartbeat IPC: 3.35003 cumulative IPC: 3.35003 (Simulation time: 0 hr 0 min 46 sec) 
Heartbeat CPU 0 instructions: 20000003 cycles: 5852915 heartbeat IPC: 3.48691 cumulative IPC: 3.4171 (Simulation time: 0 hr 1 min 35 sec) 
Heartbeat CPU 0 instructions: 30000002 cycles: 8886699 heartbeat IPC: 3.29621 cumulative IPC: 3.37583 (Simulation time: 0 hr 2 min 33 sec) 
Heartbeat CPU 0 instructions: 40000001 cycles: 12114281 heartbeat IPC: 3.09829 cumulative IPC: 3.30189 (Simulation time: 0 hr 3 min 28 sec) 
Heartbeat CPU 0 instructions: 50000003 cycles: 14949025 heartbeat IPC: 3.52766 cumulative IPC: 3.3447 (Simulation time: 0 hr 4 min 13 sec) 

Warmup complete CPU 0 instructions: 50000003 cycles: 14949025 (Simulation time: 0 hr 4 min 13 sec) 

Heartbeat CPU 0 instructions: 60000000 cycles: 32883760 heartbeat IPC: 0.557577 cumulative IPC: 0.557577 (Simulation time: 0 hr 5 min 7 sec) 
Heartbeat CPU 0 instructions: 70000002 cycles: 50470139 heartbeat IPC: 0.568622 cumulative IPC: 0.563045 (Simulation time: 0 hr 6 min 13 sec) 
Heartbeat CPU 0 instructions: 80000000 cycles: 62873198 heartbeat IPC: 0.806253 cumulative IPC: 0.625989 (Simulation time: 0 hr 6 min 58 sec) 
Heartbeat CPU 0 instructions: 90000001 cycles: 81858614 heartbeat IPC: 0.52672 cumulative IPC: 0.597822 (Simulation time: 0 hr 8 min 4 sec) 
Heartbeat CPU 0 instructions: 100000000 cycles: 108513003 heartbeat IPC: 0.375173 cumulative IPC: 0.534394 (Simulation time: 0 hr 9 min 24 sec) 
*** Reached end of trace for Core: 0 Repeating trace: traces/spec2k17/client_007.champsimtrace.xz
Heartbeat CPU 0 instructions: 110000000 cycles: 131490119 heartbeat IPC: 0.435216 cumulative IPC: 0.51484 (Simulation time: 0 hr 10 min 47 sec) 
Heartbeat CPU 0 instructions: 120000000 cycles: 150823074 heartbeat IPC: 0.517251 cumulative IPC: 0.515183 (Simulation time: 0 hr 12 min 10 sec) 
Heartbeat CPU 0 instructions: 130000001 cycles: 169002304 heartbeat IPC: 0.550078 cumulative IPC: 0.519301 (Simulation time: 0 hr 13 min 52 sec) 
Heartbeat CPU 0 instructions: 140000003 cycles: 186341555 heartbeat IPC: 0.576726 cumulative IPC: 0.52511 (Simulation time: 0 hr 16 min 56 sec) 
Heartbeat CPU 0 instructions: 150000001 cycles: 204949036 heartbeat IPC: 0.537418 cumulative IPC: 0.526316 (Simulation time: 0 hr 20 min 7 sec) 
Heartbeat CPU 0 instructions: 160000000 cycles: 223274248 heartbeat IPC: 0.545696 cumulative IPC: 0.528021 (Simulation time: 0 hr 22 min 0 sec) 
Heartbeat CPU 0 instructions: 170000000 cycles: 239959868 heartbeat IPC: 0.599318 cumulative IPC: 0.533308 (Simulation time: 0 hr 26 min 56 sec) 
Heartbeat CPU 0 instructions: 180000001 cycles: 252891583 heartbeat IPC: 0.773293 cumulative IPC: 0.54635 (Simulation time: 0 hr 33 min 11 sec) 
Heartbeat CPU 0 instructions: 190000002 cycles: 270946890 heartbeat IPC: 0.553854 cumulative IPC: 0.54688 (Simulation time: 0 hr 36 min 20 sec) 
Heartbeat CPU 0 instructions: 200000003 cycles: 297754569 heartbeat IPC: 0.373027 cumulative IPC: 0.5304 (Simulation time: 0 hr 42 min 6 sec) 
*** Reached end of trace for Core: 0 Repeating trace: traces/spec2k17/client_007.champsimtrace.xz
Heartbeat CPU 0 instructions: 210000000 cycles: 320032317 heartbeat IPC: 0.448878 cumulative IPC: 0.524447 (Simulation time: 0 hr 46 min 32 sec) 
Heartbeat CPU 0 instructions: 220000000 cycles: 340563120 heartbeat IPC: 0.487073 cumulative IPC: 0.52209 (Simulation time: 0 hr 49 min 25 sec) 
Heartbeat CPU 0 instructions: 230000002 cycles: 358916161 heartbeat IPC: 0.544869 cumulative IPC: 0.523306 (Simulation time: 0 hr 50 min 37 sec) 
Heartbeat CPU 0 instructions: 240000000 cycles: 375781157 heartbeat IPC: 0.592944 cumulative IPC: 0.526561 (Simulation time: 0 hr 53 min 56 sec) 
Heartbeat CPU 0 instructions: 250000000 cycles: 393700729 heartbeat IPC: 0.558049 cumulative IPC: 0.52805 (Simulation time: 0 hr 55 min 11 sec) 
Finished CPU 0 instructions: 200000001 cycles: 378751705 cumulative IPC: 0.52805 (Simulation time: 0 hr 55 min 11 sec) 

ChampSim completed all CPUs

Region of Interest Statistics

CPU 0 cumulative IPC: 0.52805 instructions: 200000001 cycles: 378751705
ITLB TOTAL     ACCESS:   33018157  HIT:   32479929  MISS:     538228  HIT %:    98.3699  MISS %:     1.6301   MPKI: 2.69114
ITLB LOAD TRANSLATION ACCESS:   33018157  HIT:   32479929  MISS:     538228  HIT %:    98.3699  MISS %:     1.6301   MPKI: 2.69114
ITLB PREFETCH  REQUESTED:          0  ISSUED:          0  USEFUL:          0  USELESS:          0
ITLB USEFUL LOAD PREFETCHES:          0 PREFETCH ISSUED TO LOWER LEVEL:          0  ACCURACY: -nan
ITLB TIMELY PREFETCHES:          0 LATE PREFETCHES: 0 DROPPED PREFETCHES: 0
ITLB PREFETCHES SAME FILL-ORIGIN LEVEL: 0 DIFFERENT FILL-ORIGIN LEVEL: 0
ITLB AVERAGE MISS LATENCY: 9.74673 cycles
ITLB RQ	ACCESS:   38438322	FORWARD:          0	MERGED:    5324006	TO_CACHE:   33114316

DTLB TOTAL     ACCESS:   47220927  HIT:   46035670  MISS:    1185257  HIT %:      97.49  MISS %:    2.51002   MPKI: 5.92628
DTLB LOAD TRANSLATION ACCESS:   47220927  HIT:   46035670  MISS:    1185257  HIT %:      97.49  MISS %:    2.51002   MPKI: 5.92628
DTLB PREFETCH  REQUESTED:          0  ISSUED:          0  USEFUL:          0  USELESS:          0
DTLB USEFUL LOAD PREFETCHES:          0 PREFETCH ISSUED TO LOWER LEVEL:          0  ACCURACY: -nan
DTLB TIMELY PREFETCHES:          0 LATE PREFETCHES: 0 DROPPED PREFETCHES: 0
DTLB PREFETCHES SAME FILL-ORIGIN LEVEL: 0 DIFFERENT FILL-ORIGIN LEVEL: 0
DTLB AVERAGE MISS LATENCY: 10.0315 cycles
DTLB RQ	ACCESS:   58050887	FORWARD:          0	MERGED:   10771685	TO_CACHE:   47279202

STLB TOTAL     ACCESS:    4700215  HIT:    4682812  MISS:      17403  HIT %:    99.6297  MISS %:    0.37026   MPKI: 0.087015
STLB LOAD TRANSLATION ACCESS:    1723484  HIT:    1706278  MISS:      17206  HIT %:    99.0017  MISS %:   0.998327   MPKI: 0.08603
STLB TRANSLATION FROM L1D PREFETCHER ACCESS:    2976731  HIT:    2976534  MISS:        197  HIT %:    99.9934  MISS %:   0.006618   MPKI: 0.000985
STLB PREFETCH  REQUESTED:          0  ISSUED:          0  USEFUL:        173  USELESS:         22
STLB USEFUL LOAD PREFETCHES:        173 PREFETCH ISSUED TO LOWER LEVEL:          0  ACCURACY: inf
STLB TIMELY PREFETCHES:        173 LATE PREFETCHES: 15 DROPPED PREFETCHES: 435
STLB PREFETCHES SAME FILL-ORIGIN LEVEL: 0 DIFFERENT FILL-ORIGIN LEVEL: 0
STLB AVERAGE MISS LATENCY: 99.9487 cycles
STLB RQ	ACCESS:    5174151	FORWARD:          0	MERGED:     473476	TO_CACHE:    4700675

STLB Hit, L1D data hit: 0
STLB Hit, L2C data hit: 0
STLB Hit, LLC data hit: 0
STLB Hit, LLC data miss: 0
STLB STLB hints to L2: 0
L1D TOTAL     ACCESS:   60519464  HIT:   57918444  MISS:    2601020  HIT %:    95.7022  MISS %:    4.29782   MPKI: 13.0051
L1D LOAD      ACCESS:   38738610  HIT:   36559227  MISS:    2179383  HIT %:    94.3741  MISS %:    5.62587   MPKI: 10.8969
L1D RFO       ACCESS:   18409321  HIT:   18019734  MISS:     389587  HIT %:    97.8838  MISS %:    2.11625   MPKI: 1.94793
L1D PREFETCH  ACCESS:    3371533  HIT:    3339483  MISS:      32050  HIT %:    99.0494  MISS %:   0.950606   MPKI: 0.16025
AGUS PREFETCH L1 MISS: 0
L1D PREFETCH  REQUESTED:    7157152  ISSUED:    7157151  USEFUL:      31610  USELESS:        440
L1D USEFUL LOAD PREFETCHES:      31610 PREFETCH ISSUED TO LOWER LEVEL:      69248  ACCURACY: 45.6475
L1D TIMELY PREFETCHES:      31610 LATE PREFETCHES: 36827 DROPPED PREFETCHES: 440
L1D PREFETCHES SAME FILL-ORIGIN LEVEL: 69248 DIFFERENT FILL-ORIGIN LEVEL: 0
L1D AVERAGE MISS LATENCY: 3.63384e+06 cycles
L1D RQ	ACCESS:   53716120	FORWARD:          0	MERGED:   14583426	TO_CACHE:   38921903
L1D WQ	ACCESS:   20037205	FORWARD:     221648	MERGED:     908221	TO_CACHE:   19128984
L1D PQ	ACCESS:    3706484	FORWARD:          0	MERGED:     244960	TO_CACHE:    3450667

L1D UNIQUE REGIONS ACCESSED: 0
L1D REGIONS CONFLICTS: 0
L1D Cross Page Prefetch Requests: 3071161
L1D Same Page Prefetch Requests: 652801
L1D ROI Sum of L1D PQ occupancy: 48031290
L1D PREFETCHES PUSHED FROM L2C: 0
L1I TOTAL     ACCESS:   37283895  HIT:   34060669  MISS:    3223226  HIT %:    91.3549  MISS %:    8.64509   MPKI: 16.1161
L1I LOAD      ACCESS:   37283895  HIT:   34060669  MISS:    3223226  HIT %:    91.3549  MISS %:    8.64509   MPKI: 16.1161
L1I PREFETCH  REQUESTED:          0  ISSUED:          0  USEFUL:          0  USELESS:          0
L1I USEFUL LOAD PREFETCHES:          0 PREFETCH ISSUED TO LOWER LEVEL:          0  ACCURACY: -nan
L1I TIMELY PREFETCHES:          0 LATE PREFETCHES: 0 DROPPED PREFETCHES: 0
L1I PREFETCHES SAME FILL-ORIGIN LEVEL: 0 DIFFERENT FILL-ORIGIN LEVEL: 0
L1I AVERAGE MISS LATENCY: 16.6021 cycles
L1I RQ	ACCESS:   58681236	FORWARD:          0	MERGED:   20242914	TO_CACHE:   38438322

BTB TOTAL     ACCESS:   28220063  HIT:   25973493  MISS:    2246570  HIT %:    92.0391  MISS %:     7.9609   MPKI: 11.2328
BTB BRANCH_DIRECT_JUMP	ACCESS:    2927002  HIT:    2902357  MISS:      24645
BTB BRANCH_INDIRECT	ACCESS:    6543248  HIT:    5490545  MISS:    1052703
BTB BRANCH_CONDITIONAL	ACCESS:   13206143  HIT:   13158296  MISS:      47847
BTB BRANCH_DIRECT_CALL	ACCESS:    1693524  HIT:    1661218  MISS:      32306
BTB BRANCH_INDIRECT_CALL	ACCESS:    1043280  HIT:     784064  MISS:     259216
BTB BRANCH_RETURN	ACCESS:    2806866  HIT:    1977013  MISS:     829853
BTB BRANCH_OTHER ACCESS:          0  HIT:          0  MISS:          0

L2C TOTAL     ACCESS:    6839230  HIT:    6100380  MISS:     738850  HIT %:    89.1969  MISS %:    10.8031   MPKI: 3.69425
L2C LOAD      ACCESS:    5365345  HIT:    4870151  MISS:     495194  HIT %:    90.7705  MISS %:    9.22949   MPKI: 2.47597
L2C DATA LOAD MPKI: 2.18174
L2C INSTRUCTION LOAD MPKI: 0.29423
L2C RFO       ACCESS:     389212  HIT:     162799  MISS:     226413  HIT %:    41.8278  MISS %:    58.1722   MPKI: 1.13206
L2C PREFETCH  ACCESS:      69243  HIT:      68113  MISS:       1130  HIT %:    98.3681  MISS %:    1.63193   MPKI: 0.00565
AGUS PREFETCH L1 MISS: 0
L2C DATA PREFETCH MPKI: 0.00565
L2C INSTRUCTION PREFETCH MPKI: 0
L2C WRITEBACK ACCESS:     996621  HIT:     987889  MISS:       8732  HIT %:    99.1238  MISS %:   0.876161   MPKI: 0.04366
L2C LOAD TRANSLATION ACCESS:      18087  HIT:      10970  MISS:       7117  HIT %:    60.6513  MISS %:    39.3487   MPKI: 0.035585
L2C TRANSLATION FROM L1D PREFETCHER ACCESS:        722  HIT:        458  MISS:        264  HIT %:    63.4349  MISS %:    36.5651   MPKI: 0.00132
L2C PREFETCH  REQUESTED:          0  ISSUED:          0  USEFUL:        653  USELESS:        740
L2C USEFUL LOAD PREFETCHES:        653 PREFETCH ISSUED TO LOWER LEVEL:       1130  ACCURACY: 57.7876
L2C TIMELY PREFETCHES:        653 LATE PREFETCHES: 0 DROPPED PREFETCHES: 0
L2C PREFETCHES SAME FILL-ORIGIN LEVEL: 0 DIFFERENT FILL-ORIGIN LEVEL: 0
L2C AVERAGE MISS LATENCY: 131.545 cycles
L2C RQ	ACCESS:    5773806	FORWARD:          0	MERGED:          0	TO_CACHE:    5773366
L2C WQ	ACCESS:     996621	FORWARD:        445	MERGED:          0	TO_CACHE:     996621
L2C PQ	ACCESS:      69248	FORWARD:          0	MERGED:          0	TO_CACHE:      69243

L2C Instructions Evicting Data 47369
L2C Translations Evicting Data 6157
L2C Data Evicting Data 607962
L2C Instructions Evicting Instructions 10255
L2C Translations Evicting Instructions 1045
L2C Data Evicting Instructions 49803
L2C Instructions Evicting Translations 1222
L2C Translations Evicting Translations 179
L2C Data Evicting Translations 6126
L2C Dense regions hint from L2: 0
PSCL5 TOTAL     ACCESS:      17747  HIT:      17747  MISS:          0  HIT %:        100  MISS %:          0   MPKI: 0
PSCL5 LOAD TRANSLATION ACCESS:      17191  HIT:      17191  MISS:          0  HIT %:        100  MISS %:          0   MPKI: 0
PSCL5 TRANSLATION FROM L1D PREFETCHER ACCESS:        556  HIT:        556  MISS:          0  HIT %:        100  MISS %:          0   MPKI: 0
PSCL5 PREFETCH  REQUESTED:          0  ISSUED:          0  USEFUL:          0  USELESS:          0
PSCL5 USEFUL LOAD PREFETCHES:          0 PREFETCH ISSUED TO LOWER LEVEL:          0  ACCURACY: -nan
PSCL5 TIMELY PREFETCHES:          0 LATE PREFETCHES: 0 DROPPED PREFETCHES: 0
PSCL5 PREFETCHES SAME FILL-ORIGIN LEVEL: 0 DIFFERENT FILL-ORIGIN LEVEL: 0

PSCL4 TOTAL     ACCESS:      16932  HIT:      16909  MISS:         23  HIT %:    99.8642  MISS %:   0.135837   MPKI: 0.000115
PSCL4 LOAD TRANSLATION ACCESS:      16467  HIT:      16444  MISS:         23  HIT %:    99.8603  MISS %:   0.139673   MPKI: 0.000115
PSCL4 TRANSLATION FROM L1D PREFETCHER ACCESS:        465  HIT:        465  MISS:          0  HIT %:        100  MISS %:          0   MPKI: 0
PSCL4 PREFETCH  REQUESTED:          0  ISSUED:          0  USEFUL:          0  USELESS:          0
PSCL4 USEFUL LOAD PREFETCHES:          0 PREFETCH ISSUED TO LOWER LEVEL:          0  ACCURACY: -nan
PSCL4 TIMELY PREFETCHES:          0 LATE PREFETCHES: 0 DROPPED PREFETCHES: 0
PSCL4 PREFETCHES SAME FILL-ORIGIN LEVEL: 0 DIFFERENT FILL-ORIGIN LEVEL: 0

PSCL3 TOTAL     ACCESS:      17303  HIT:      17230  MISS:         73  HIT %:    99.5781  MISS %:   0.421892   MPKI: 0.000365
PSCL3 LOAD TRANSLATION ACCESS:      16791  HIT:      16718  MISS:         73  HIT %:    99.5652  MISS %:   0.434757   MPKI: 0.000365
PSCL3 TRANSLATION FROM L1D PREFETCHER ACCESS:        512  HIT:        512  MISS:          0  HIT %:        100  MISS %:          0   MPKI: 0
PSCL3 PREFETCH  REQUESTED:          0  ISSUED:          0  USEFUL:          0  USELESS:          0
PSCL3 USEFUL LOAD PREFETCHES:          0 PREFETCH ISSUED TO LOWER LEVEL:          0  ACCURACY: -nan
PSCL3 TIMELY PREFETCHES:          0 LATE PREFETCHES: 0 DROPPED PREFETCHES: 0
PSCL3 PREFETCHES SAME FILL-ORIGIN LEVEL: 0 DIFFERENT FILL-ORIGIN LEVEL: 0

PSCL2 TOTAL     ACCESS:      17533  HIT:      16714  MISS:        819  HIT %:    95.3288  MISS %:    4.67119   MPKI: 0.004095
PSCL2 LOAD TRANSLATION ACCESS:      17205  HIT:      16386  MISS:        819  HIT %:    95.2398  MISS %:    4.76024   MPKI: 0.004095
PSCL2 TRANSLATION FROM L1D PREFETCHER ACCESS:        328  HIT:        328  MISS:          0  HIT %:        100  MISS %:          0   MPKI: 0
PSCL2 PREFETCH  REQUESTED:          0  ISSUED:          0  USEFUL:          0  USELESS:          0
PSCL2 USEFUL LOAD PREFETCHES:          0 PREFETCH ISSUED TO LOWER LEVEL:          0  ACCURACY: -nan
PSCL2 TIMELY PREFETCHES:          0 LATE PREFETCHES: 0 DROPPED PREFETCHES: 0
PSCL2 PREFETCHES SAME FILL-ORIGIN LEVEL: 0 DIFFERENT FILL-ORIGIN LEVEL: 0

LLC TOTAL     ACCESS:    1041983  HIT:     560332  MISS:     481651  HIT %:    53.7755  MISS %:    46.2245   MPKI: 2.40825
LLC LOAD      ACCESS:     495193  HIT:     239400  MISS:     255793  HIT %:    48.3448  MISS %:    51.6552   MPKI: 1.27896
LLC RFO       ACCESS:     226413  HIT:      21682  MISS:     204731  HIT %:    9.57631  MISS %:    90.4237   MPKI: 1.02365
LLC PREFETCH  ACCESS:       1130  HIT:        229  MISS:        901  HIT %:    20.2655  MISS %:    79.7345   MPKI: 0.004505
AGUS PREFETCH L1 MISS: 0
LLC WRITEBACK ACCESS:     311866  HIT:     297023  MISS:      14843  HIT %:    95.2406  MISS %:    4.75942   MPKI: 0.074215
LLC LOAD TRANSLATION ACCESS:       7117  HIT:       1931  MISS:       5186  HIT %:    27.1322  MISS %:    72.8678   MPKI: 0.02593
LLC TRANSLATION FROM L1D PREFETCHER ACCESS:        264  HIT:         67  MISS:        197  HIT %:    25.3788  MISS %:    74.6212   MPKI: 0.000985
LLC PREFETCH  REQUESTED:          0  ISSUED:          0  USEFUL:        136  USELESS:        951
LLC USEFUL LOAD PREFETCHES:        136 PREFETCH ISSUED TO LOWER LEVEL:        901  ACCURACY: 15.0943
LLC TIMELY PREFETCHES:        136 LATE PREFETCHES: 0 DROPPED PREFETCHES: 0
LLC PREFETCHES SAME FILL-ORIGIN LEVEL: 0 DIFFERENT FILL-ORIGIN LEVEL: 0
LLC AVERAGE MISS LATENCY: 156.147 cycles
LLC RQ	ACCESS:     728988	FORWARD:          0	MERGED:          0	TO_CACHE:     728987
LLC WQ	ACCESS:     311868	FORWARD:          1	MERGED:          0	TO_CACHE:     311868
LLC PQ	ACCESS:       1130	FORWARD:          0	MERGED:          0	TO_CACHE:       1130

LLC Dense regions hint to LLC: 0

RAW hits: 2659852
Loads Generated: 56375973
Loads sent to L1D: 53716120
Stores Generated: 20037193
Stores sent to L1D: 20037205
Major fault: 0 Minor fault: 4494
Allocated PAGES: 4494
Completed 
Accuracy : 91.2337
Number of unique groups: 8672981

DRAM Statistics
 CHANNEL 0
 RQ ROW_BUFFER_HIT:      98407  ROW_BUFFER_MISS:     368394
 DBUS_CONGESTED:        425
 WQ ROW_BUFFER_HIT:      50735  ROW_BUFFER_MISS:     196768  FULL:          0

 AVG_CONGESTED_CYCLE: 4
 All warmup complete: 2
Channel 0 Bank busy for read cycles: 0
Channel 0 Bank busy for write cycles: 0
Channel 0
Rank 0
0banks busy for read cycles: 308130800
0banks busy for write cycles: 115777
1banks busy for read cycles: 33671926
1banks busy for write cycles: 16805753
2banks busy for read cycles: 6889356
2banks busy for write cycles: 4789317
3banks busy for read cycles: 1526257
3banks busy for write cycles: 2003567
4banks busy for read cycles: 541743
4banks busy for write cycles: 945303
5banks busy for read cycles: 432868
5banks busy for write cycles: 510282
6banks busy for read cycles: 140086
6banks busy for write cycles: 349981
7banks busy for read cycles: 181913
7banks busy for write cycles: 375091
8banks busy for read cycles: 223512
8banks busy for write cycles: 1118174

CPU 0 Branch Prediction Accuracy: 98.8408% MPKI: 2.00119 Average ROB Occupancy at Mispredict: 29.0807
Branch types
NOT_BRANCH: 165473054 82.7365%
BRANCH_DIRECT_JUMP: 2927002 1.4635%
BRANCH_INDIRECT: 6543248 3.27162%
BRANCH_CONDITIONAL: 19512693 9.75635%
BRANCH_DIRECT_CALL: 1693524 0.846762%
BRANCH_INDIRECT_CALL: 1043280 0.52164%
BRANCH_RETURN: 2806866 1.40343%
BRANCH_OTHER: 0 0%

DRAM PAGES: 1048576
Allocated PAGES: 4494
