
*** ChampSim Multicore Out-of-Order Simulator ***

Warmup Instructions: 50000000
Simulation Instructions: 200000000
Number of CPUs: 1
LLC sets: 2048
LLC ways: 16
Off-chip DRAM Size: 4096 MB Channels: 1 Width: 64-bit Data Rate: 6400 MT/s
CPU 0 runs traces/spec2k17/client_001.champsimtrace.xz
.xz
BTB has LRU replacement policy
ITLB has LRU replacement policy
DTLB has LRU replacement policy
STLB has LRU replacement policy
L1I has LRU replacement policy
L1D has LRU replacement policy
Initialize SRRIP state for L2C
Initialize DRRIP state for LLC
Heartbeat CPU 0 instructions: 10000003 cycles: 2841511 heartbeat IPC: 3.51926 cumulative IPC: 3.51926 (Simulation time: 0 hr 0 min 52 sec) 
Heartbeat CPU 0 instructions: 20000002 cycles: 5746754 heartbeat IPC: 3.44205 cumulative IPC: 3.48023 (Simulation time: 0 hr 1 min 46 sec) 
Heartbeat CPU 0 instructions: 30000003 cycles: 8559948 heartbeat IPC: 3.55468 cumulative IPC: 3.50469 (Simulation time: 0 hr 2 min 35 sec) 
Heartbeat CPU 0 instructions: 40000003 cycles: 11597559 heartbeat IPC: 3.29206 cumulative IPC: 3.449 (Simulation time: 0 hr 3 min 27 sec) 
Heartbeat CPU 0 instructions: 50000000 cycles: 14381579 heartbeat IPC: 3.59193 cumulative IPC: 3.47667 (Simulation time: 0 hr 4 min 13 sec) 

Warmup complete CPU 0 instructions: 50000004 cycles: 14381580 (Simulation time: 0 hr 4 min 13 sec) 

Heartbeat CPU 0 instructions: 60000001 cycles: 34685517 heartbeat IPC: 0.492515 cumulative IPC: 0.492515 (Simulation time: 0 hr 5 min 20 sec) 
Heartbeat CPU 0 instructions: 70000002 cycles: 49271655 heartbeat IPC: 0.685583 cumulative IPC: 0.573229 (Simulation time: 0 hr 6 min 17 sec) 
Heartbeat CPU 0 instructions: 80000003 cycles: 69310805 heartbeat IPC: 0.499023 cumulative IPC: 0.546157 (Simulation time: 0 hr 7 min 27 sec) 
Heartbeat CPU 0 instructions: 90000000 cycles: 84092727 heartbeat IPC: 0.676502 cumulative IPC: 0.573796 (Simulation time: 0 hr 8 min 27 sec) 
Heartbeat CPU 0 instructions: 100000000 cycles: 106767850 heartbeat IPC: 0.441012 cumulative IPC: 0.541206 (Simulation time: 0 hr 9 min 36 sec) 
*** Reached end of trace for Core: 0 Repeating trace: traces/spec2k17/client_001.champsimtrace.xz
Heartbeat CPU 0 instructions: 110000000 cycles: 125273177 heartbeat IPC: 0.540385 cumulative IPC: 0.541069 (Simulation time: 0 hr 10 min 53 sec) 
Heartbeat CPU 0 instructions: 120000002 cycles: 143765218 heartbeat IPC: 0.540773 cumulative IPC: 0.541027 (Simulation time: 0 hr 12 min 33 sec) 
Heartbeat CPU 0 instructions: 130000000 cycles: 159750507 heartbeat IPC: 0.625575 cumulative IPC: 0.550324 (Simulation time: 0 hr 14 min 12 sec) 
Heartbeat CPU 0 instructions: 140000000 cycles: 182095182 heartbeat IPC: 0.447534 cumulative IPC: 0.536629 (Simulation time: 0 hr 18 min 19 sec) 
Heartbeat CPU 0 instructions: 150000000 cycles: 196932656 heartbeat IPC: 0.673969 cumulative IPC: 0.547792 (Simulation time: 0 hr 20 min 28 sec) 
Heartbeat CPU 0 instructions: 160000000 cycles: 217889020 heartbeat IPC: 0.477182 cumulative IPC: 0.540521 (Simulation time: 0 hr 26 min 2 sec) 
Heartbeat CPU 0 instructions: 170000002 cycles: 232888619 heartbeat IPC: 0.666685 cumulative IPC: 0.549181 (Simulation time: 0 hr 30 min 20 sec) 
Heartbeat CPU 0 instructions: 180000002 cycles: 251448280 heartbeat IPC: 0.538803 cumulative IPC: 0.548369 (Simulation time: 0 hr 39 min 59 sec) 
Heartbeat CPU 0 instructions: 190000000 cycles: 267851027 heartbeat IPC: 0.609654 cumulative IPC: 0.552335 (Simulation time: 0 hr 44 min 8 sec) 
Heartbeat CPU 0 instructions: 200000000 cycles: 289451348 heartbeat IPC: 0.462956 cumulative IPC: 0.545316 (Simulation time: 0 hr 48 min 59 sec) 
*** Reached end of trace for Core: 0 Repeating trace: traces/spec2k17/client_001.champsimtrace.xz
Heartbeat CPU 0 instructions: 210000000 cycles: 308087062 heartbeat IPC: 0.536604 cumulative IPC: 0.544763 (Simulation time: 0 hr 51 min 5 sec) 
Heartbeat CPU 0 instructions: 220000000 cycles: 327190764 heartbeat IPC: 0.523459 cumulative IPC: 0.543462 (Simulation time: 0 hr 54 min 0 sec) 
Heartbeat CPU 0 instructions: 230000001 cycles: 341631255 heartbeat IPC: 0.692497 cumulative IPC: 0.550039 (Simulation time: 0 hr 55 min 3 sec) 
Heartbeat CPU 0 instructions: 240000001 cycles: 364390474 heartbeat IPC: 0.439382 cumulative IPC: 0.542843 (Simulation time: 0 hr 56 min 13 sec) 
Heartbeat CPU 0 instructions: 250000002 cycles: 380120875 heartbeat IPC: 0.635712 cumulative IPC: 0.546838 (Simulation time: 0 hr 56 min 47 sec) 
Finished CPU 0 instructions: 200000002 cycles: 365739296 cumulative IPC: 0.546838 (Simulation time: 0 hr 56 min 47 sec) 

ChampSim completed all CPUs

Region of Interest Statistics

CPU 0 cumulative IPC: 0.546838 instructions: 200000002 cycles: 365739296
ITLB TOTAL     ACCESS:   31529957  HIT:   31290474  MISS:     239483  HIT %:    99.2405  MISS %:   0.759541   MPKI: 1.19741
ITLB LOAD TRANSLATION ACCESS:   31529957  HIT:   31290474  MISS:     239483  HIT %:    99.2405  MISS %:   0.759541   MPKI: 1.19741
ITLB PREFETCH  REQUESTED:          0  ISSUED:          0  USEFUL:          0  USELESS:          0
ITLB USEFUL LOAD PREFETCHES:          0 PREFETCH ISSUED TO LOWER LEVEL:          0  ACCURACY: -nan
ITLB TIMELY PREFETCHES:          0 LATE PREFETCHES: 0 DROPPED PREFETCHES: 0
ITLB PREFETCHES SAME FILL-ORIGIN LEVEL: 0 DIFFERENT FILL-ORIGIN LEVEL: 0
ITLB AVERAGE MISS LATENCY: 10.3734 cycles
ITLB RQ	ACCESS:   37905345	FORWARD:          0	MERGED:    6329167	TO_CACHE:   31576178

DTLB TOTAL     ACCESS:   43968179  HIT:   42829984  MISS:    1138195  HIT %:    97.4113  MISS %:    2.58868   MPKI: 5.69097
DTLB LOAD TRANSLATION ACCESS:   43968179  HIT:   42829984  MISS:    1138195  HIT %:    97.4113  MISS %:    2.58868   MPKI: 5.69097
DTLB PREFETCH  REQUESTED:          0  ISSUED:          0  USEFUL:          0  USELESS:          0
DTLB USEFUL LOAD PREFETCHES:          0 PREFETCH ISSUED TO LOWER LEVEL:          0  ACCURACY: -nan
DTLB TIMELY PREFETCHES:          0 LATE PREFETCHES: 0 DROPPED PREFETCHES: 0
DTLB PREFETCHES SAME FILL-ORIGIN LEVEL: 0 DIFFERENT FILL-ORIGIN LEVEL: 0
DTLB AVERAGE MISS LATENCY: 10.002 cycles
DTLB RQ	ACCESS:   53296577	FORWARD:          0	MERGED:    9261775	TO_CACHE:   44034802

STLB TOTAL     ACCESS:    3808409  HIT:    3792515  MISS:      15894  HIT %:    99.5827  MISS %:    0.41734   MPKI: 0.07947
STLB LOAD TRANSLATION ACCESS:    1377678  HIT:    1361797  MISS:      15881  HIT %:    98.8473  MISS %:    1.15274   MPKI: 0.079405
STLB TRANSLATION FROM L1D PREFETCHER ACCESS:    2430731  HIT:    2430718  MISS:         13  HIT %:    99.9995  MISS %: 0.000534819   MPKI: 6.5e-05
STLB PREFETCH  REQUESTED:          0  ISSUED:          0  USEFUL:         11  USELESS:          2
STLB USEFUL LOAD PREFETCHES:         11 PREFETCH ISSUED TO LOWER LEVEL:          0  ACCURACY: inf
STLB TIMELY PREFETCHES:         11 LATE PREFETCHES: 1 DROPPED PREFETCHES: 102
STLB PREFETCHES SAME FILL-ORIGIN LEVEL: 0 DIFFERENT FILL-ORIGIN LEVEL: 0
STLB AVERAGE MISS LATENCY: 94.1921 cycles
STLB RQ	ACCESS:    4361572	FORWARD:          0	MERGED:     553059	TO_CACHE:    3808513

STLB Hit, L1D data hit: 0
STLB Hit, L2C data hit: 0
STLB Hit, LLC data hit: 0
STLB Hit, LLC data miss: 0
STLB STLB hints to L2: 0
L1D TOTAL     ACCESS:   55624072  HIT:   53574149  MISS:    2049923  HIT %:    96.3147  MISS %:    3.68532   MPKI: 10.2496
L1D LOAD      ACCESS:   36416485  HIT:   34616498  MISS:    1799987  HIT %:    95.0572  MISS %:    4.94278   MPKI: 8.99993
L1D RFO       ACCESS:   16228964  HIT:   15983550  MISS:     245414  HIT %:    98.4878  MISS %:     1.5122   MPKI: 1.22707
L1D PREFETCH  ACCESS:    2978623  HIT:    2974101  MISS:       4522  HIT %:    99.8482  MISS %:   0.151815   MPKI: 0.02261
AGUS PREFETCH L1 MISS: 0
L1D PREFETCH  REQUESTED:    6094867  ISSUED:    6094867  USEFUL:       3933  USELESS:        589
L1D USEFUL LOAD PREFETCHES:       3933 PREFETCH ISSUED TO LOWER LEVEL:       6932  ACCURACY: 56.7369
L1D TIMELY PREFETCHES:       3933 LATE PREFETCHES: 2399 DROPPED PREFETCHES: 102
L1D PREFETCHES SAME FILL-ORIGIN LEVEL: 6932 DIFFERENT FILL-ORIGIN LEVEL: 0
L1D AVERAGE MISS LATENCY: 317776 cycles
L1D RQ	ACCESS:   52841203	FORWARD:          0	MERGED:   16043070	TO_CACHE:   36621550
L1D WQ	ACCESS:   16975108	FORWARD:     178339	MERGED:     300081	TO_CACHE:   16675027
L1D PQ	ACCESS:    3110973	FORWARD:          0	MERGED:     125323	TO_CACHE:    2983894

L1D UNIQUE REGIONS ACCESSED: 0
L1D REGIONS CONFLICTS: 0
L1D Cross Page Prefetch Requests: 2600255
L1D Same Page Prefetch Requests: 786292
L1D ROI Sum of L1D PQ occupancy: 41425928
L1D PREFETCHES PUSHED FROM L2C: 0
L1I TOTAL     ACCESS:   37387164  HIT:   36191207  MISS:    1195957  HIT %:    96.8012  MISS %:    3.19884   MPKI: 5.97978
L1I LOAD      ACCESS:   37387164  HIT:   36191207  MISS:    1195957  HIT %:    96.8012  MISS %:    3.19884   MPKI: 5.97978
L1I PREFETCH  REQUESTED:          0  ISSUED:          0  USEFUL:          0  USELESS:          0
L1I USEFUL LOAD PREFETCHES:          0 PREFETCH ISSUED TO LOWER LEVEL:          0  ACCURACY: -nan
L1I TIMELY PREFETCHES:          0 LATE PREFETCHES: 0 DROPPED PREFETCHES: 0
L1I PREFETCHES SAME FILL-ORIGIN LEVEL: 0 DIFFERENT FILL-ORIGIN LEVEL: 0
L1I AVERAGE MISS LATENCY: 20.2996 cycles
L1I RQ	ACCESS:   57421884	FORWARD:          0	MERGED:   19516539	TO_CACHE:   37905345

BTB TOTAL     ACCESS:   27458437  HIT:   25555237  MISS:    1903200  HIT %:    93.0688  MISS %:     6.9312   MPKI: 9.516
BTB BRANCH_DIRECT_JUMP	ACCESS:    1694154  HIT:    1685629  MISS:       8525
BTB BRANCH_INDIRECT	ACCESS:    6802149  HIT:    5941476  MISS:     860673
BTB BRANCH_CONDITIONAL	ACCESS:   13299545  HIT:   13284175  MISS:      15370
BTB BRANCH_DIRECT_CALL	ACCESS:    1985283  HIT:    1973782  MISS:      11501
BTB BRANCH_INDIRECT_CALL	ACCESS:     845555  HIT:     614784  MISS:     230771
BTB BRANCH_RETURN	ACCESS:    2831751  HIT:    2055391  MISS:     776360
BTB BRANCH_OTHER ACCESS:          0  HIT:          0  MISS:          0

L2C TOTAL     ACCESS:    3851400  HIT:    2791454  MISS:    1059946  HIT %:    72.4789  MISS %:    27.5211   MPKI: 5.29973
L2C LOAD      ACCESS:    2993530  HIT:    2109116  MISS:     884414  HIT %:    70.4558  MISS %:    29.5442   MPKI: 4.42207
L2C DATA LOAD MPKI: 4.0518
L2C INSTRUCTION LOAD MPKI: 0.370265
L2C RFO       ACCESS:     245403  HIT:      84390  MISS:     161013  HIT %:    34.3883  MISS %:    65.6117   MPKI: 0.805065
L2C PREFETCH  ACCESS:       6932  HIT:       6401  MISS:        531  HIT %:    92.3399  MISS %:    7.66013   MPKI: 0.002655
AGUS PREFETCH L1 MISS: 0
L2C DATA PREFETCH MPKI: 0.002655
L2C INSTRUCTION PREFETCH MPKI: 0
L2C WRITEBACK ACCESS:     588676  HIT:     581739  MISS:       6937  HIT %:    98.8216  MISS %:    1.17841   MPKI: 0.034685
L2C LOAD TRANSLATION ACCESS:      16736  HIT:       9729  MISS:       7007  HIT %:    58.1322  MISS %:    41.8678   MPKI: 0.035035
L2C TRANSLATION FROM L1D PREFETCHER ACCESS:        123  HIT:         79  MISS:         44  HIT %:    64.2276  MISS %:    35.7724   MPKI: 0.00022
L2C PREFETCH  REQUESTED:          0  ISSUED:          0  USEFUL:        232  USELESS:        343
L2C USEFUL LOAD PREFETCHES:        232 PREFETCH ISSUED TO LOWER LEVEL:        531  ACCURACY: 43.6911
L2C TIMELY PREFETCHES:        232 LATE PREFETCHES: 0 DROPPED PREFETCHES: 0
L2C PREFETCHES SAME FILL-ORIGIN LEVEL: 0 DIFFERENT FILL-ORIGIN LEVEL: 0
L2C AVERAGE MISS LATENCY: 106.187 cycles
L2C RQ	ACCESS:    3255807	FORWARD:          0	MERGED:          0	TO_CACHE:    3255792
L2C WQ	ACCESS:     588677	FORWARD:         15	MERGED:          0	TO_CACHE:     588677
L2C PQ	ACCESS:       6932	FORWARD:          0	MERGED:          0	TO_CACHE:       6932

L2C Instructions Evicting Data 65113
L2C Translations Evicting Data 6260
L2C Data Evicting Data 903160
L2C Instructions Evicting Instructions 8177
L2C Translations Evicting Instructions 711
L2C Data Evicting Instructions 62556
L2C Instructions Evicting Translations 763
L2C Translations Evicting Translations 80
L2C Data Evicting Translations 6189
L2C Dense regions hint from L2: 0
PSCL5 TOTAL     ACCESS:      15990  HIT:      15990  MISS:          0  HIT %:        100  MISS %:          0   MPKI: 0
PSCL5 LOAD TRANSLATION ACCESS:      15880  HIT:      15880  MISS:          0  HIT %:        100  MISS %:          0   MPKI: 0
PSCL5 TRANSLATION FROM L1D PREFETCHER ACCESS:        110  HIT:        110  MISS:          0  HIT %:        100  MISS %:          0   MPKI: 0
PSCL5 PREFETCH  REQUESTED:          0  ISSUED:          0  USEFUL:          0  USELESS:          0
PSCL5 USEFUL LOAD PREFETCHES:          0 PREFETCH ISSUED TO LOWER LEVEL:          0  ACCURACY: -nan
PSCL5 TIMELY PREFETCHES:          0 LATE PREFETCHES: 0 DROPPED PREFETCHES: 0
PSCL5 PREFETCHES SAME FILL-ORIGIN LEVEL: 0 DIFFERENT FILL-ORIGIN LEVEL: 0

PSCL4 TOTAL     ACCESS:      15856  HIT:      15846  MISS:         10  HIT %:    99.9369  MISS %:  0.0630676   MPKI: 5e-05
PSCL4 LOAD TRANSLATION ACCESS:      15746  HIT:      15736  MISS:         10  HIT %:    99.9365  MISS %:  0.0635082   MPKI: 5e-05
PSCL4 TRANSLATION FROM L1D PREFETCHER ACCESS:        110  HIT:        110  MISS:          0  HIT %:        100  MISS %:          0   MPKI: 0
PSCL4 PREFETCH  REQUESTED:          0  ISSUED:          0  USEFUL:          0  USELESS:          0
PSCL4 USEFUL LOAD PREFETCHES:          0 PREFETCH ISSUED TO LOWER LEVEL:          0  ACCURACY: -nan
PSCL4 TIMELY PREFETCHES:          0 LATE PREFETCHES: 0 DROPPED PREFETCHES: 0
PSCL4 PREFETCHES SAME FILL-ORIGIN LEVEL: 0 DIFFERENT FILL-ORIGIN LEVEL: 0

PSCL3 TOTAL     ACCESS:      15700  HIT:      15667  MISS:         33  HIT %:    99.7898  MISS %:   0.210191   MPKI: 0.000165
PSCL3 LOAD TRANSLATION ACCESS:      15653  HIT:      15620  MISS:         33  HIT %:    99.7892  MISS %:   0.210822   MPKI: 0.000165
PSCL3 TRANSLATION FROM L1D PREFETCHER ACCESS:         47  HIT:         47  MISS:          0  HIT %:        100  MISS %:          0   MPKI: 0
PSCL3 PREFETCH  REQUESTED:          0  ISSUED:          0  USEFUL:          0  USELESS:          0
PSCL3 USEFUL LOAD PREFETCHES:          0 PREFETCH ISSUED TO LOWER LEVEL:          0  ACCURACY: -nan
PSCL3 TIMELY PREFETCHES:          0 LATE PREFETCHES: 0 DROPPED PREFETCHES: 0
PSCL3 PREFETCHES SAME FILL-ORIGIN LEVEL: 0 DIFFERENT FILL-ORIGIN LEVEL: 0

PSCL2 TOTAL     ACCESS:      15909  HIT:      15091  MISS:        818  HIT %:    94.8583  MISS %:    5.14174   MPKI: 0.00409
PSCL2 LOAD TRANSLATION ACCESS:      15880  HIT:      15062  MISS:        818  HIT %:    94.8489  MISS %:    5.15113   MPKI: 0.00409
PSCL2 TRANSLATION FROM L1D PREFETCHER ACCESS:         29  HIT:         29  MISS:          0  HIT %:        100  MISS %:          0   MPKI: 0
PSCL2 PREFETCH  REQUESTED:          0  ISSUED:          0  USEFUL:          0  USELESS:          0
PSCL2 USEFUL LOAD PREFETCHES:          0 PREFETCH ISSUED TO LOWER LEVEL:          0  ACCURACY: -nan
PSCL2 TIMELY PREFETCHES:          0 LATE PREFETCHES: 0 DROPPED PREFETCHES: 0
PSCL2 PREFETCHES SAME FILL-ORIGIN LEVEL: 0 DIFFERENT FILL-ORIGIN LEVEL: 0

LLC TOTAL     ACCESS:    1425447  HIT:     923096  MISS:     502351  HIT %:    64.7584  MISS %:    35.2416   MPKI: 2.51175
LLC LOAD      ACCESS:     884414  HIT:     546633  MISS:     337781  HIT %:    61.8074  MISS %:    38.1926   MPKI: 1.6889
LLC RFO       ACCESS:     161013  HIT:      24907  MISS:     136106  HIT %:    15.4689  MISS %:    84.5311   MPKI: 0.68053
LLC PREFETCH  ACCESS:        531  HIT:        291  MISS:        240  HIT %:    54.8023  MISS %:    45.1977   MPKI: 0.0012
AGUS PREFETCH L1 MISS: 0
LLC WRITEBACK ACCESS:     372438  HIT:     349054  MISS:      23384  HIT %:    93.7214  MISS %:    6.27863   MPKI: 0.11692
LLC LOAD TRANSLATION ACCESS:       7007  HIT:       2199  MISS:       4808  HIT %:    31.3829  MISS %:    68.6171   MPKI: 0.02404
LLC TRANSLATION FROM L1D PREFETCHER ACCESS:         44  HIT:         12  MISS:         32  HIT %:    27.2727  MISS %:    72.7273   MPKI: 0.00016
LLC PREFETCH  REQUESTED:          0  ISSUED:          0  USEFUL:         39  USELESS:        218
LLC USEFUL LOAD PREFETCHES:         39 PREFETCH ISSUED TO LOWER LEVEL:        240  ACCURACY: 16.25
LLC TIMELY PREFETCHES:         39 LATE PREFETCHES: 0 DROPPED PREFETCHES: 0
LLC PREFETCHES SAME FILL-ORIGIN LEVEL: 0 DIFFERENT FILL-ORIGIN LEVEL: 0
LLC AVERAGE MISS LATENCY: 161.091 cycles
LLC RQ	ACCESS:    1052478	FORWARD:          0	MERGED:          0	TO_CACHE:    1052478
LLC WQ	ACCESS:     372439	FORWARD:          0	MERGED:          0	TO_CACHE:     372439
LLC PQ	ACCESS:        531	FORWARD:          0	MERGED:          0	TO_CACHE:        531

LLC Dense regions hint to LLC: 0

RAW hits: 2600474
Loads Generated: 55441678
Loads sent to L1D: 52841203
Stores Generated: 16975122
Stores sent to L1D: 16975108
Major fault: 0 Minor fault: 3509
Allocated PAGES: 3509
Completed 
Accuracy : 90.1565
Number of unique groups: 9140185

DRAM Statistics
 CHANNEL 0
 RQ ROW_BUFFER_HIT:     109933  ROW_BUFFER_MISS:     369027
 DBUS_CONGESTED:        145
 WQ ROW_BUFFER_HIT:      50617  ROW_BUFFER_MISS:     242143  FULL:          0

 AVG_CONGESTED_CYCLE: 4
 All warmup complete: 2
Channel 0 Bank busy for read cycles: 0
Channel 0 Bank busy for write cycles: 0
Channel 0
Rank 0
0banks busy for read cycles: 291386371
0banks busy for write cycles: 140144
1banks busy for read cycles: 33989377
1banks busy for write cycles: 19740599
2banks busy for read cycles: 6611159
2banks busy for write cycles: 5680009
3banks busy for read cycles: 1671114
3banks busy for write cycles: 1958548
4banks busy for read cycles: 355742
4banks busy for write cycles: 807664
5banks busy for read cycles: 171150
5banks busy for write cycles: 446565
6banks busy for read cycles: 145660
6banks busy for write cycles: 305169
7banks busy for read cycles: 254973
7banks busy for write cycles: 296926
8banks busy for read cycles: 485507
8banks busy for write cycles: 1292620

CPU 0 Branch Prediction Accuracy: 98.6141% MPKI: 2.42227 Average ROB Occupancy at Mispredict: 27.1307
Branch types
NOT_BRANCH: 165044320 82.5222%
BRANCH_DIRECT_JUMP: 1694154 0.847077%
BRANCH_INDIRECT: 6802149 3.40107%
BRANCH_CONDITIONAL: 20796949 10.3985%
BRANCH_DIRECT_CALL: 1985283 0.992641%
BRANCH_INDIRECT_CALL: 845555 0.422777%
BRANCH_RETURN: 2831751 1.41588%
BRANCH_OTHER: 0 0%

DRAM PAGES: 1048576
Allocated PAGES: 3509
