
*** ChampSim Multicore Out-of-Order Simulator ***

Warmup Instructions: 50000000
Simulation Instructions: 200000000
Number of CPUs: 1
LLC sets: 2048
LLC ways: 16
Off-chip DRAM Size: 4096 MB Channels: 1 Width: 64-bit Data Rate: 6400 MT/s
CPU 0 runs traces/spec2k17/server_001.champsimtrace.xz
.xz
BTB has LRU replacement policy
ITLB has LRU replacement policy
DTLB has LRU replacement policy
STLB has LRU replacement policy
L1I has LRU replacement policy
L1D has LRU replacement policy
Initialize SRRIP state for L2C
Initialize DRRIP state for LLC
Heartbeat CPU 0 instructions: 10000000 cycles: 2723383 heartbeat IPC: 3.6719 cumulative IPC: 3.6719 (Simulation time: 0 hr 0 min 48 sec) 
Heartbeat CPU 0 instructions: 20000000 cycles: 5453594 heartbeat IPC: 3.66272 cumulative IPC: 3.66731 (Simulation time: 0 hr 1 min 36 sec) 
Heartbeat CPU 0 instructions: 30000002 cycles: 8182795 heartbeat IPC: 3.66408 cumulative IPC: 3.66623 (Simulation time: 0 hr 2 min 19 sec) 
Heartbeat CPU 0 instructions: 40000001 cycles: 10917857 heartbeat IPC: 3.65622 cumulative IPC: 3.66372 (Simulation time: 0 hr 3 min 8 sec) 
Heartbeat CPU 0 instructions: 50000000 cycles: 13639721 heartbeat IPC: 3.67395 cumulative IPC: 3.66576 (Simulation time: 0 hr 3 min 48 sec) 

Warmup complete CPU 0 instructions: 50000004 cycles: 13639722 (Simulation time: 0 hr 3 min 48 sec) 

Heartbeat CPU 0 instructions: 60000000 cycles: 31137034 heartbeat IPC: 0.571516 cumulative IPC: 0.571516 (Simulation time: 0 hr 4 min 50 sec) 
Heartbeat CPU 0 instructions: 70000000 cycles: 47867357 heartbeat IPC: 0.597717 cumulative IPC: 0.584323 (Simulation time: 0 hr 5 min 42 sec) 
Heartbeat CPU 0 instructions: 80000003 cycles: 64515486 heartbeat IPC: 0.600668 cumulative IPC: 0.589672 (Simulation time: 0 hr 6 min 35 sec) 
Heartbeat CPU 0 instructions: 90000000 cycles: 81633243 heartbeat IPC: 0.584189 cumulative IPC: 0.588291 (Simulation time: 0 hr 7 min 33 sec) 
Heartbeat CPU 0 instructions: 100000000 cycles: 98176708 heartbeat IPC: 0.604468 cumulative IPC: 0.591457 (Simulation time: 0 hr 8 min 31 sec) 
*** Reached end of trace for Core: 0 Repeating trace: traces/spec2k17/server_001.champsimtrace.xz
Heartbeat CPU 0 instructions: 110000000 cycles: 115404802 heartbeat IPC: 0.580447 cumulative IPC: 0.589593 (Simulation time: 0 hr 9 min 30 sec) 
Heartbeat CPU 0 instructions: 120000000 cycles: 131123499 heartbeat IPC: 0.636185 cumulative IPC: 0.595827 (Simulation time: 0 hr 10 min 24 sec) 
Heartbeat CPU 0 instructions: 130000002 cycles: 148089967 heartbeat IPC: 0.589398 cumulative IPC: 0.595016 (Simulation time: 0 hr 11 min 22 sec) 
Heartbeat CPU 0 instructions: 140000002 cycles: 165520721 heartbeat IPC: 0.573699 cumulative IPC: 0.592569 (Simulation time: 0 hr 12 min 20 sec) 
Heartbeat CPU 0 instructions: 150000001 cycles: 182885392 heartbeat IPC: 0.575882 cumulative IPC: 0.590857 (Simulation time: 0 hr 13 min 23 sec) 
Heartbeat CPU 0 instructions: 160000000 cycles: 199069976 heartbeat IPC: 0.617872 cumulative IPC: 0.593215 (Simulation time: 0 hr 14 min 23 sec) 
Heartbeat CPU 0 instructions: 170000000 cycles: 215900165 heartbeat IPC: 0.59417 cumulative IPC: 0.593294 (Simulation time: 0 hr 15 min 23 sec) 
Heartbeat CPU 0 instructions: 180000002 cycles: 232583078 heartbeat IPC: 0.599416 cumulative IPC: 0.593761 (Simulation time: 0 hr 16 min 25 sec) 
Heartbeat CPU 0 instructions: 190000003 cycles: 249110681 heartbeat IPC: 0.605048 cumulative IPC: 0.594553 (Simulation time: 0 hr 17 min 29 sec) 
Heartbeat CPU 0 instructions: 200000001 cycles: 265603802 heartbeat IPC: 0.606313 cumulative IPC: 0.595323 (Simulation time: 0 hr 18 min 37 sec) 
*** Reached end of trace for Core: 0 Repeating trace: traces/spec2k17/server_001.champsimtrace.xz
Heartbeat CPU 0 instructions: 210000000 cycles: 282503603 heartbeat IPC: 0.591723 cumulative IPC: 0.595097 (Simulation time: 0 hr 19 min 47 sec) 
Heartbeat CPU 0 instructions: 220000000 cycles: 298882016 heartbeat IPC: 0.61056 cumulative IPC: 0.595985 (Simulation time: 0 hr 21 min 5 sec) 
Heartbeat CPU 0 instructions: 230000002 cycles: 315246408 heartbeat IPC: 0.611083 cumulative IPC: 0.596804 (Simulation time: 0 hr 22 min 31 sec) 
Heartbeat CPU 0 instructions: 240000002 cycles: 332973896 heartbeat IPC: 0.564096 cumulative IPC: 0.594988 (Simulation time: 0 hr 24 min 3 sec) 
Heartbeat CPU 0 instructions: 250000002 cycles: 349341127 heartbeat IPC: 0.610977 cumulative IPC: 0.595768 (Simulation time: 0 hr 26 min 25 sec) 
Finished CPU 0 instructions: 200000003 cycles: 335701411 cumulative IPC: 0.595768 (Simulation time: 0 hr 26 min 25 sec) 

ChampSim completed all CPUs

Region of Interest Statistics

CPU 0 cumulative IPC: 0.595768 instructions: 200000003 cycles: 335701411
ITLB TOTAL     ACCESS:   29902574  HIT:   29485254  MISS:     417320  HIT %:    98.6044  MISS %:     1.3956   MPKI: 2.0866
ITLB LOAD TRANSLATION ACCESS:   29902574  HIT:   29485254  MISS:     417320  HIT %:    98.6044  MISS %:     1.3956   MPKI: 2.0866
ITLB PREFETCH  REQUESTED:          0  ISSUED:          0  USEFUL:          0  USELESS:          0
ITLB USEFUL LOAD PREFETCHES:          0 PREFETCH ISSUED TO LOWER LEVEL:          0  ACCURACY: -nan
ITLB TIMELY PREFETCHES:          0 LATE PREFETCHES: 0 DROPPED PREFETCHES: 0
ITLB PREFETCHES SAME FILL-ORIGIN LEVEL: 0 DIFFERENT FILL-ORIGIN LEVEL: 0
ITLB AVERAGE MISS LATENCY: 12.5948 cycles
ITLB RQ	ACCESS:   36670811	FORWARD:          0	MERGED:    6644106	TO_CACHE:   30026705

DTLB TOTAL     ACCESS:   36753374  HIT:   35573670  MISS:    1179704  HIT %:    96.7902  MISS %:    3.20978   MPKI: 5.89852
DTLB LOAD TRANSLATION ACCESS:   36753374  HIT:   35573670  MISS:    1179704  HIT %:    96.7902  MISS %:    3.20978   MPKI: 5.89852
DTLB PREFETCH  REQUESTED:          0  ISSUED:          0  USEFUL:          0  USELESS:          0
DTLB USEFUL LOAD PREFETCHES:          0 PREFETCH ISSUED TO LOWER LEVEL:          0  ACCURACY: -nan
DTLB TIMELY PREFETCHES:          0 LATE PREFETCHES: 0 DROPPED PREFETCHES: 0
DTLB PREFETCHES SAME FILL-ORIGIN LEVEL: 0 DIFFERENT FILL-ORIGIN LEVEL: 0
DTLB AVERAGE MISS LATENCY: 18.0403 cycles
DTLB RQ	ACCESS:   46754238	FORWARD:          0	MERGED:    9938244	TO_CACHE:   36815994

STLB TOTAL     ACCESS:    2001355  HIT:    1883641  MISS:     117714  HIT %:    94.1183  MISS %:    5.88172   MPKI: 0.58857
STLB LOAD TRANSLATION ACCESS:    1597024  HIT:    1479360  MISS:     117664  HIT %:    92.6323  MISS %:     7.3677   MPKI: 0.58832
STLB TRANSLATION FROM L1D PREFETCHER ACCESS:     404331  HIT:     404281  MISS:         50  HIT %:    99.9876  MISS %:  0.0123661   MPKI: 0.00025
STLB PREFETCH  REQUESTED:          0  ISSUED:          0  USEFUL:         43  USELESS:          7
STLB USEFUL LOAD PREFETCHES:         43 PREFETCH ISSUED TO LOWER LEVEL:          0  ACCURACY: inf
STLB TIMELY PREFETCHES:         43 LATE PREFETCHES: 4 DROPPED PREFETCHES: 160
STLB PREFETCHES SAME FILL-ORIGIN LEVEL: 0 DIFFERENT FILL-ORIGIN LEVEL: 0
STLB AVERAGE MISS LATENCY: 103.496 cycles
STLB RQ	ACCESS:    2111653	FORWARD:          0	MERGED:     110133	TO_CACHE:    2001520

STLB Hit, L1D data hit: 0
STLB Hit, L2C data hit: 0
STLB Hit, LLC data hit: 0
STLB Hit, LLC data miss: 0
STLB STLB hints to L2: 0
L1D TOTAL     ACCESS:   45562580  HIT:   43955073  MISS:    1607507  HIT %:    96.4719  MISS %:    3.52813   MPKI: 8.03753
L1D LOAD      ACCESS:   25395538  HIT:   24178508  MISS:    1217030  HIT %:    95.2077  MISS %:     4.7923   MPKI: 6.08515
L1D RFO       ACCESS:   19659921  HIT:   19270385  MISS:     389536  HIT %:    98.0186  MISS %:    1.98137   MPKI: 1.94768
L1D PREFETCH  ACCESS:     507121  HIT:     506180  MISS:        941  HIT %:    99.8144  MISS %:   0.185557   MPKI: 0.004705
AGUS PREFETCH L1 MISS: 0
L1D PREFETCH  REQUESTED:    1046313  ISSUED:    1046313  USEFUL:        685  USELESS:        256
L1D USEFUL LOAD PREFETCHES:        685 PREFETCH ISSUED TO LOWER LEVEL:       3571  ACCURACY: 19.1823
L1D TIMELY PREFETCHES:        685 LATE PREFETCHES: 2630 DROPPED PREFETCHES: 175
L1D PREFETCHES SAME FILL-ORIGIN LEVEL: 3571 DIFFERENT FILL-ORIGIN LEVEL: 0
L1D AVERAGE MISS LATENCY: 261104 cycles
L1D RQ	ACCESS:   41390431	FORWARD:          0	MERGED:   15493255	TO_CACHE:   25666653
L1D WQ	ACCESS:   21428311	FORWARD:     233486	MERGED:     340726	TO_CACHE:   21087585
L1D PQ	ACCESS:     531684	FORWARD:          0	MERGED:      14092	TO_CACHE:     514629

L1D UNIQUE REGIONS ACCESSED: 0
L1D REGIONS CONFLICTS: 0
L1D Cross Page Prefetch Requests: 438425
L1D Same Page Prefetch Requests: 104836
L1D ROI Sum of L1D PQ occupancy: 7158044
L1D PREFETCHES PUSHED FROM L2C: 0
L1I TOTAL     ACCESS:   35820315  HIT:   33877542  MISS:    1942773  HIT %:    94.5763  MISS %:    5.42366   MPKI: 9.71386
L1I LOAD      ACCESS:   35820315  HIT:   33877542  MISS:    1942773  HIT %:    94.5763  MISS %:    5.42366   MPKI: 9.71386
L1I PREFETCH  REQUESTED:          0  ISSUED:          0  USEFUL:          0  USELESS:          0
L1I USEFUL LOAD PREFETCHES:          0 PREFETCH ISSUED TO LOWER LEVEL:          0  ACCURACY: -nan
L1I TIMELY PREFETCHES:          0 LATE PREFETCHES: 0 DROPPED PREFETCHES: 0
L1I PREFETCHES SAME FILL-ORIGIN LEVEL: 0 DIFFERENT FILL-ORIGIN LEVEL: 0
L1I AVERAGE MISS LATENCY: 25.7381 cycles
L1I RQ	ACCESS:   54949274	FORWARD:          0	MERGED:   18278463	TO_CACHE:   36670811

BTB TOTAL     ACCESS:   19565792  HIT:   17841636  MISS:    1724156  HIT %:    91.1879  MISS %:    8.81209   MPKI: 8.62078
BTB BRANCH_DIRECT_JUMP	ACCESS:    1340351  HIT:    1290273  MISS:      50078
BTB BRANCH_INDIRECT	ACCESS:    8225897  HIT:    7338608  MISS:     887289
BTB BRANCH_CONDITIONAL	ACCESS:    5257195  HIT:    5175329  MISS:      81866
BTB BRANCH_DIRECT_CALL	ACCESS:    2229321  HIT:    2140579  MISS:      88742
BTB BRANCH_INDIRECT_CALL	ACCESS:     141641  HIT:     131666  MISS:       9975
BTB BRANCH_RETURN	ACCESS:    2371387  HIT:    1765181  MISS:     606206
BTB BRANCH_OTHER ACCESS:          0  HIT:          0  MISS:          0

L2C TOTAL     ACCESS:    4499631  HIT:    2792012  MISS:    1707619  HIT %:    62.0498  MISS %:    37.9502   MPKI: 8.53809
L2C LOAD      ACCESS:    3157167  HIT:    1881566  MISS:    1275601  HIT %:    59.5967  MISS %:    40.4033   MPKI: 6.378
L2C DATA LOAD MPKI: 3.79039
L2C INSTRUCTION LOAD MPKI: 2.58761
L2C RFO       ACCESS:     389534  HIT:      65650  MISS:     323884  HIT %:    16.8535  MISS %:    83.1465   MPKI: 1.61942
L2C PREFETCH  ACCESS:       3571  HIT:       3070  MISS:        501  HIT %:    85.9703  MISS %:    14.0297   MPKI: 0.002505
AGUS PREFETCH L1 MISS: 0
L2C DATA PREFETCH MPKI: 0.002505
L2C INSTRUCTION PREFETCH MPKI: 0
L2C WRITEBACK ACCESS:     798911  HIT:     772723  MISS:      26188  HIT %:     96.722  MISS %:    3.27796   MPKI: 0.13094
L2C LOAD TRANSLATION ACCESS:     150120  HIT:      68772  MISS:      81348  HIT %:    45.8114  MISS %:    54.1886   MPKI: 0.40674
L2C TRANSLATION FROM L1D PREFETCHER ACCESS:        328  HIT:        231  MISS:         97  HIT %:    70.4268  MISS %:    29.5732   MPKI: 0.000485
L2C PREFETCH  REQUESTED:          0  ISSUED:          0  USEFUL:        152  USELESS:        443
L2C USEFUL LOAD PREFETCHES:        152 PREFETCH ISSUED TO LOWER LEVEL:        501  ACCURACY: 30.3393
L2C TIMELY PREFETCHES:        152 LATE PREFETCHES: 0 DROPPED PREFETCHES: 0
L2C PREFETCHES SAME FILL-ORIGIN LEVEL: 0 DIFFERENT FILL-ORIGIN LEVEL: 0
L2C AVERAGE MISS LATENCY: 127.426 cycles
L2C RQ	ACCESS:    3697157	FORWARD:          0	MERGED:          0	TO_CACHE:    3697149
L2C WQ	ACCESS:     798911	FORWARD:          8	MERGED:          0	TO_CACHE:     798911
L2C PQ	ACCESS:       3571	FORWARD:          0	MERGED:          0	TO_CACHE:       3571

L2C Instructions Evicting Data 332598
L2C Translations Evicting Data 51942
L2C Data Evicting Data 708747
L2C Instructions Evicting Instructions 161426
L2C Translations Evicting Instructions 25651
L2C Data Evicting Instructions 320772
L2C Instructions Evicting Translations 23498
L2C Translations Evicting Translations 3852
L2C Data Evicting Translations 52945
L2C Dense regions hint from L2: 0
PSCL5 TOTAL     ACCESS:     117874  HIT:     117874  MISS:          0  HIT %:        100  MISS %:          0   MPKI: 0
PSCL5 LOAD TRANSLATION ACCESS:     117660  HIT:     117660  MISS:          0  HIT %:        100  MISS %:          0   MPKI: 0
PSCL5 TRANSLATION FROM L1D PREFETCHER ACCESS:        214  HIT:        214  MISS:          0  HIT %:        100  MISS %:          0   MPKI: 0
PSCL5 PREFETCH  REQUESTED:          0  ISSUED:          0  USEFUL:          0  USELESS:          0
PSCL5 USEFUL LOAD PREFETCHES:          0 PREFETCH ISSUED TO LOWER LEVEL:          0  ACCURACY: -nan
PSCL5 TIMELY PREFETCHES:          0 LATE PREFETCHES: 0 DROPPED PREFETCHES: 0
PSCL5 PREFETCHES SAME FILL-ORIGIN LEVEL: 0 DIFFERENT FILL-ORIGIN LEVEL: 0

PSCL4 TOTAL     ACCESS:     115597  HIT:     115272  MISS:        325  HIT %:    99.7189  MISS %:   0.281149   MPKI: 0.001625
PSCL4 LOAD TRANSLATION ACCESS:     115395  HIT:     115070  MISS:        325  HIT %:    99.7184  MISS %:   0.281641   MPKI: 0.001625
PSCL4 TRANSLATION FROM L1D PREFETCHER ACCESS:        202  HIT:        202  MISS:          0  HIT %:        100  MISS %:          0   MPKI: 0
PSCL4 PREFETCH  REQUESTED:          0  ISSUED:          0  USEFUL:          0  USELESS:          0
PSCL4 USEFUL LOAD PREFETCHES:          0 PREFETCH ISSUED TO LOWER LEVEL:          0  ACCURACY: -nan
PSCL4 TIMELY PREFETCHES:          0 LATE PREFETCHES: 0 DROPPED PREFETCHES: 0
PSCL4 PREFETCHES SAME FILL-ORIGIN LEVEL: 0 DIFFERENT FILL-ORIGIN LEVEL: 0

PSCL3 TOTAL     ACCESS:     117529  HIT:     117204  MISS:        325  HIT %:    99.7235  MISS %:   0.276527   MPKI: 0.001625
PSCL3 LOAD TRANSLATION ACCESS:     117326  HIT:     117001  MISS:        325  HIT %:     99.723  MISS %:   0.277006   MPKI: 0.001625
PSCL3 TRANSLATION FROM L1D PREFETCHER ACCESS:        203  HIT:        203  MISS:          0  HIT %:        100  MISS %:          0   MPKI: 0
PSCL3 PREFETCH  REQUESTED:          0  ISSUED:          0  USEFUL:          0  USELESS:          0
PSCL3 USEFUL LOAD PREFETCHES:          0 PREFETCH ISSUED TO LOWER LEVEL:          0  ACCURACY: -nan
PSCL3 TIMELY PREFETCHES:          0 LATE PREFETCHES: 0 DROPPED PREFETCHES: 0
PSCL3 PREFETCHES SAME FILL-ORIGIN LEVEL: 0 DIFFERENT FILL-ORIGIN LEVEL: 0

PSCL2 TOTAL     ACCESS:     117720  HIT:      85854  MISS:      31866  HIT %:    72.9307  MISS %:    27.0693   MPKI: 0.15933
PSCL2 LOAD TRANSLATION ACCESS:     117701  HIT:      85835  MISS:      31866  HIT %:    72.9263  MISS %:    27.0737   MPKI: 0.15933
PSCL2 TRANSLATION FROM L1D PREFETCHER ACCESS:         19  HIT:         19  MISS:          0  HIT %:        100  MISS %:          0   MPKI: 0
PSCL2 PREFETCH  REQUESTED:          0  ISSUED:          0  USEFUL:          0  USELESS:          0
PSCL2 USEFUL LOAD PREFETCHES:          0 PREFETCH ISSUED TO LOWER LEVEL:          0  ACCURACY: -nan
PSCL2 TIMELY PREFETCHES:          0 LATE PREFETCHES: 0 DROPPED PREFETCHES: 0
PSCL2 PREFETCHES SAME FILL-ORIGIN LEVEL: 0 DIFFERENT FILL-ORIGIN LEVEL: 0

LLC TOTAL     ACCESS:    2333584  HIT:    1450997  MISS:     882587  HIT %:    62.1789  MISS %:    37.8211   MPKI: 4.41293
LLC LOAD      ACCESS:    1275601  HIT:     754982  MISS:     520619  HIT %:    59.1864  MISS %:    40.8136   MPKI: 2.60309
LLC RFO       ACCESS:     323884  HIT:      23755  MISS:     300129  HIT %:    7.33442  MISS %:    92.6656   MPKI: 1.50064
LLC PREFETCH  ACCESS:        501  HIT:        429  MISS:         72  HIT %:    85.6287  MISS %:    14.3713   MPKI: 0.00036
AGUS PREFETCH L1 MISS: 0
LLC WRITEBACK ACCESS:     652153  HIT:     620897  MISS:      31256  HIT %:    95.2073  MISS %:    4.79274   MPKI: 0.15628
LLC LOAD TRANSLATION ACCESS:      81348  HIT:      50851  MISS:      30497  HIT %:    62.5104  MISS %:    37.4896   MPKI: 0.152485
LLC TRANSLATION FROM L1D PREFETCHER ACCESS:         97  HIT:         83  MISS:         14  HIT %:     85.567  MISS %:     14.433   MPKI: 7e-05
LLC PREFETCH  REQUESTED:          0  ISSUED:          0  USEFUL:         21  USELESS:         63
LLC USEFUL LOAD PREFETCHES:         21 PREFETCH ISSUED TO LOWER LEVEL:         72  ACCURACY: 29.1667
LLC TIMELY PREFETCHES:         21 LATE PREFETCHES: 0 DROPPED PREFETCHES: 0
LLC PREFETCHES SAME FILL-ORIGIN LEVEL: 0 DIFFERENT FILL-ORIGIN LEVEL: 0
LLC AVERAGE MISS LATENCY: 189.112 cycles
LLC RQ	ACCESS:    1680930	FORWARD:          0	MERGED:          0	TO_CACHE:    1680930
LLC WQ	ACCESS:     652153	FORWARD:          0	MERGED:          0	TO_CACHE:     652153
LLC PQ	ACCESS:        501	FORWARD:          0	MERGED:          0	TO_CACHE:        501

LLC Dense regions hint to LLC: 0

RAW hits: 4175099
Loads Generated: 45565530
Loads sent to L1D: 41390431
Stores Generated: 21428291
Stores sent to L1D: 21428311
Major fault: 0 Minor fault: 17224
Allocated PAGES: 17224
Completed 
Accuracy : 87.6999
Number of unique groups: 6102805

DRAM Statistics
 CHANNEL 0
 RQ ROW_BUFFER_HIT:     222752  ROW_BUFFER_MISS:     628575
 DBUS_CONGESTED:        374
 WQ ROW_BUFFER_HIT:     100314  ROW_BUFFER_MISS:     493996  FULL:          0

 AVG_CONGESTED_CYCLE: 5
 All warmup complete: 2
Channel 0 Bank busy for read cycles: 0
Channel 0 Bank busy for write cycles: 0
Channel 0
Rank 0
0banks busy for read cycles: 204542514
0banks busy for write cycles: 261800
1banks busy for read cycles: 58657423
1banks busy for write cycles: 35628797
2banks busy for read cycles: 12366598
2banks busy for write cycles: 12341288
3banks busy for read cycles: 733549
3banks busy for write cycles: 3077187
4banks busy for read cycles: 180247
4banks busy for write cycles: 1197942
5banks busy for read cycles: 131233
5banks busy for write cycles: 560714
6banks busy for read cycles: 130647
6banks busy for write cycles: 294160
7banks busy for read cycles: 255375
7banks busy for write cycles: 345957
8banks busy for read cycles: 2022522
8banks busy for write cycles: 2973459

CPU 0 Branch Prediction Accuracy: 99.7678% MPKI: 0.38212 Average ROB Occupancy at Mispredict: 62.386
Branch types
NOT_BRANCH: 167088784 83.5444%
BRANCH_DIRECT_JUMP: 1340351 0.670175%
BRANCH_INDIRECT: 8225897 4.11295%
BRANCH_CONDITIONAL: 18602253 9.30113%
BRANCH_DIRECT_CALL: 2229321 1.11466%
BRANCH_INDIRECT_CALL: 141641 0.0708205%
BRANCH_RETURN: 2371387 1.18569%
BRANCH_OTHER: 0 0%

DRAM PAGES: 1048576
Allocated PAGES: 17224
