
*** ChampSim Multicore Out-of-Order Simulator ***

Warmup Instructions: 50000000
Simulation Instructions: 200000000
Number of CPUs: 1
LLC sets: 2048
LLC ways: 16
Off-chip DRAM Size: 4096 MB Channels: 1 Width: 64-bit Data Rate: 6400 MT/s
CPU 0 runs traces/spec2k17/server_020.champsimtrace.xz
.xz
BTB has LRU replacement policy
ITLB has LRU replacement policy
DTLB has LRU replacement policy
STLB has LRU replacement policy
L1I has LRU replacement policy
L1D has LRU replacement policy
Initialize SRRIP state for L2C
Initialize DRRIP state for LLC
Heartbeat CPU 0 instructions: 10000000 cycles: 2937066 heartbeat IPC: 3.40476 cumulative IPC: 3.40476 (Simulation time: 0 hr 0 min 58 sec) 
Heartbeat CPU 0 instructions: 20000001 cycles: 5871868 heartbeat IPC: 3.40739 cumulative IPC: 3.40607 (Simulation time: 0 hr 2 min 1 sec) 
Heartbeat CPU 0 instructions: 30000000 cycles: 8807937 heartbeat IPC: 3.40591 cumulative IPC: 3.40602 (Simulation time: 0 hr 3 min 11 sec) 
Heartbeat CPU 0 instructions: 40000000 cycles: 11743760 heartbeat IPC: 3.4062 cumulative IPC: 3.40606 (Simulation time: 0 hr 4 min 26 sec) 
Heartbeat CPU 0 instructions: 50000000 cycles: 14676863 heartbeat IPC: 3.40936 cumulative IPC: 3.40672 (Simulation time: 0 hr 5 min 38 sec) 

Warmup complete CPU 0 instructions: 50000004 cycles: 14676864 (Simulation time: 0 hr 5 min 38 sec) 

Heartbeat CPU 0 instructions: 60000002 cycles: 35171117 heartbeat IPC: 0.487942 cumulative IPC: 0.487942 (Simulation time: 0 hr 7 min 18 sec) 
Heartbeat CPU 0 instructions: 70000000 cycles: 55503273 heartbeat IPC: 0.491832 cumulative IPC: 0.489879 (Simulation time: 0 hr 9 min 5 sec) 
Heartbeat CPU 0 instructions: 80000001 cycles: 75887396 heartbeat IPC: 0.490578 cumulative IPC: 0.490112 (Simulation time: 0 hr 10 min 59 sec) 
Heartbeat CPU 0 instructions: 90000001 cycles: 96220871 heartbeat IPC: 0.4918 cumulative IPC: 0.490533 (Simulation time: 0 hr 13 min 9 sec) 
Heartbeat CPU 0 instructions: 100000000 cycles: 116437247 heartbeat IPC: 0.494648 cumulative IPC: 0.49135 (Simulation time: 0 hr 15 min 35 sec) 
*** Reached end of trace for Core: 0 Repeating trace: traces/spec2k17/server_020.champsimtrace.xz
Heartbeat CPU 0 instructions: 110000000 cycles: 136768289 heartbeat IPC: 0.491859 cumulative IPC: 0.491435 (Simulation time: 0 hr 18 min 18 sec) 
Heartbeat CPU 0 instructions: 120000001 cycles: 156981637 heartbeat IPC: 0.494723 cumulative IPC: 0.491902 (Simulation time: 0 hr 21 min 15 sec) 
Heartbeat CPU 0 instructions: 130000001 cycles: 177253202 heartbeat IPC: 0.493302 cumulative IPC: 0.492077 (Simulation time: 0 hr 24 min 27 sec) 
Heartbeat CPU 0 instructions: 140000000 cycles: 197312841 heartbeat IPC: 0.498513 cumulative IPC: 0.492783 (Simulation time: 0 hr 28 min 8 sec) 
Heartbeat CPU 0 instructions: 150000002 cycles: 217476134 heartbeat IPC: 0.495951 cumulative IPC: 0.493098 (Simulation time: 0 hr 33 min 10 sec) 
Heartbeat CPU 0 instructions: 160000002 cycles: 237939663 heartbeat IPC: 0.488674 cumulative IPC: 0.492693 (Simulation time: 0 hr 38 min 19 sec) 
Heartbeat CPU 0 instructions: 170000001 cycles: 258146837 heartbeat IPC: 0.494874 cumulative IPC: 0.492874 (Simulation time: 0 hr 42 min 29 sec) 
Heartbeat CPU 0 instructions: 180000001 cycles: 278280692 heartbeat IPC: 0.496676 cumulative IPC: 0.493164 (Simulation time: 0 hr 46 min 22 sec) 
Heartbeat CPU 0 instructions: 190000000 cycles: 298504591 heartbeat IPC: 0.494464 cumulative IPC: 0.493257 (Simulation time: 0 hr 48 min 57 sec) 
Heartbeat CPU 0 instructions: 200000003 cycles: 318629644 heartbeat IPC: 0.496893 cumulative IPC: 0.493498 (Simulation time: 0 hr 50 min 52 sec) 
Heartbeat CPU 0 instructions: 210000001 cycles: 338877258 heartbeat IPC: 0.493885 cumulative IPC: 0.493522 (Simulation time: 0 hr 53 min 8 sec) 
*** Reached end of trace for Core: 0 Repeating trace: traces/spec2k17/server_020.champsimtrace.xz
Heartbeat CPU 0 instructions: 220000000 cycles: 359065863 heartbeat IPC: 0.495329 cumulative IPC: 0.493628 (Simulation time: 0 hr 54 min 48 sec) 
Heartbeat CPU 0 instructions: 230000001 cycles: 379123653 heartbeat IPC: 0.498559 cumulative IPC: 0.493899 (Simulation time: 0 hr 56 min 5 sec) 
Heartbeat CPU 0 instructions: 240000000 cycles: 399342190 heartbeat IPC: 0.494596 cumulative IPC: 0.493936 (Simulation time: 0 hr 57 min 17 sec) 
Heartbeat CPU 0 instructions: 250000000 cycles: 419420928 heartbeat IPC: 0.498039 cumulative IPC: 0.494139 (Simulation time: 0 hr 58 min 21 sec) 
Finished CPU 0 instructions: 200000000 cycles: 404744073 cumulative IPC: 0.494139 (Simulation time: 0 hr 58 min 21 sec) 

ChampSim completed all CPUs

Region of Interest Statistics

CPU 0 cumulative IPC: 0.494139 instructions: 200000000 cycles: 404744073
ITLB TOTAL     ACCESS:   33743813  HIT:   32251279  MISS:    1492534  HIT %:    95.5769  MISS %:    4.42313   MPKI: 7.46267
ITLB LOAD TRANSLATION ACCESS:   33743813  HIT:   32251279  MISS:    1492534  HIT %:    95.5769  MISS %:    4.42313   MPKI: 7.46267
ITLB PREFETCH  REQUESTED:          0  ISSUED:          0  USEFUL:          0  USELESS:          0
ITLB USEFUL LOAD PREFETCHES:          0 PREFETCH ISSUED TO LOWER LEVEL:          0  ACCURACY: -nan
ITLB TIMELY PREFETCHES:          0 LATE PREFETCHES: 0 DROPPED PREFETCHES: 0
ITLB PREFETCHES SAME FILL-ORIGIN LEVEL: 0 DIFFERENT FILL-ORIGIN LEVEL: 0
ITLB AVERAGE MISS LATENCY: 9.42118 cycles
ITLB RQ	ACCESS:   40550891	FORWARD:          0	MERGED:    6325575	TO_CACHE:   34225316

DTLB TOTAL     ACCESS:   39586151  HIT:   38016743  MISS:    1569408  HIT %:    96.0355  MISS %:    3.96454   MPKI: 7.84704
DTLB LOAD TRANSLATION ACCESS:   39586151  HIT:   38016743  MISS:    1569408  HIT %:    96.0355  MISS %:    3.96454   MPKI: 7.84704
DTLB PREFETCH  REQUESTED:          0  ISSUED:          0  USEFUL:          0  USELESS:          0
DTLB USEFUL LOAD PREFETCHES:          0 PREFETCH ISSUED TO LOWER LEVEL:          0  ACCURACY: -nan
DTLB TIMELY PREFETCHES:          0 LATE PREFETCHES: 0 DROPPED PREFETCHES: 0
DTLB PREFETCHES SAME FILL-ORIGIN LEVEL: 0 DIFFERENT FILL-ORIGIN LEVEL: 0
DTLB AVERAGE MISS LATENCY: 15.2916 cycles
DTLB RQ	ACCESS:   60345608	FORWARD:          0	MERGED:   20373528	TO_CACHE:   39972080

STLB TOTAL     ACCESS:    4714944  HIT:    4591857  MISS:     123087  HIT %:    97.3894  MISS %:    2.61057   MPKI: 0.615435
STLB LOAD TRANSLATION ACCESS:    3061942  HIT:    2941878  MISS:     120064  HIT %:    96.0788  MISS %:    3.92117   MPKI: 0.60032
STLB TRANSLATION FROM L1D PREFETCHER ACCESS:    1653002  HIT:    1649979  MISS:       3023  HIT %:    99.8171  MISS %:   0.182879   MPKI: 0.015115
STLB PREFETCH  REQUESTED:          0  ISSUED:          0  USEFUL:       2782  USELESS:        240
STLB USEFUL LOAD PREFETCHES:       2782 PREFETCH ISSUED TO LOWER LEVEL:          0  ACCURACY: inf
STLB TIMELY PREFETCHES:       2782 LATE PREFETCHES: 830 DROPPED PREFETCHES: 1897
STLB PREFETCHES SAME FILL-ORIGIN LEVEL: 0 DIFFERENT FILL-ORIGIN LEVEL: 0
STLB AVERAGE MISS LATENCY: 87.2297 cycles
STLB RQ	ACCESS:    5745676	FORWARD:          0	MERGED:    1028005	TO_CACHE:    4717671

STLB Hit, L1D data hit: 0
STLB Hit, L2C data hit: 0
STLB Hit, LLC data hit: 0
STLB Hit, LLC data miss: 0
STLB STLB hints to L2: 0
L1D TOTAL     ACCESS:   50685930  HIT:   43978471  MISS:    6707459  HIT %:    86.7666  MISS %:    13.2334   MPKI: 33.5373
L1D LOAD      ACCESS:   26569323  HIT:   23624843  MISS:    2944480  HIT %:    88.9177  MISS %:    11.0823   MPKI: 14.7224
L1D RFO       ACCESS:   22045446  HIT:   18455335  MISS:    3590111  HIT %:     83.715  MISS %:     16.285   MPKI: 17.9506
L1D PREFETCH  ACCESS:    2071161  HIT:    1898293  MISS:     172868  HIT %:    91.6536  MISS %:    8.34643   MPKI: 0.86434
AGUS PREFETCH L1 MISS: 0
L1D PREFETCH  REQUESTED:    5500587  ISSUED:    5500574  USEFUL:     158637  USELESS:      14235
L1D USEFUL LOAD PREFETCHES:     158637 PREFETCH ISSUED TO LOWER LEVEL:     461448  ACCURACY: 34.3781
L1D TIMELY PREFETCHES:     158637 LATE PREFETCHES: 288570 DROPPED PREFETCHES: 2675
L1D PREFETCHES SAME FILL-ORIGIN LEVEL: 461448 DIFFERENT FILL-ORIGIN LEVEL: 0
L1D AVERAGE MISS LATENCY: 9.40834e+06 cycles
L1D RQ	ACCESS:   45054072	FORWARD:          0	MERGED:   17816642	TO_CACHE:   26955999
L1D WQ	ACCESS:   33586965	FORWARD:     298032	MERGED:     197356	TO_CACHE:   33389609
L1D PQ	ACCESS:    2816840	FORWARD:          0	MERGED:     116505	TO_CACHE:    2683734

L1D UNIQUE REGIONS ACCESSED: 0
L1D REGIONS CONFLICTS: 0
L1D Cross Page Prefetch Requests: 1409233
L1D Same Page Prefetch Requests: 1853611
L1D ROI Sum of L1D PQ occupancy: 38387255
L1D PREFETCHES PUSHED FROM L2C: 0
L1I TOTAL     ACCESS:   37939519  HIT:   29018227  MISS:    8921292  HIT %:    76.4855  MISS %:    23.5145   MPKI: 44.6065
L1I LOAD      ACCESS:   37939519  HIT:   29018227  MISS:    8921292  HIT %:    76.4855  MISS %:    23.5145   MPKI: 44.6065
L1I PREFETCH  REQUESTED:          0  ISSUED:          0  USEFUL:          0  USELESS:          0
L1I USEFUL LOAD PREFETCHES:          0 PREFETCH ISSUED TO LOWER LEVEL:          0  ACCURACY: -nan
L1I TIMELY PREFETCHES:          0 LATE PREFETCHES: 0 DROPPED PREFETCHES: 0
L1I PREFETCHES SAME FILL-ORIGIN LEVEL: 0 DIFFERENT FILL-ORIGIN LEVEL: 0
L1I AVERAGE MISS LATENCY: 16.6313 cycles
L1I RQ	ACCESS:   58799344	FORWARD:          0	MERGED:   18248453	TO_CACHE:   40550891

BTB TOTAL     ACCESS:   25748402  HIT:   24111404  MISS:    1636998  HIT %:    93.6423  MISS %:    6.35767   MPKI: 8.18499
BTB BRANCH_DIRECT_JUMP	ACCESS:    1705434  HIT:    1695554  MISS:       9880
BTB BRANCH_INDIRECT	ACCESS:    9970641  HIT:    9389854  MISS:     580787
BTB BRANCH_CONDITIONAL	ACCESS:    7278514  HIT:    7264968  MISS:      13546
BTB BRANCH_DIRECT_CALL	ACCESS:    2773558  HIT:    2740277  MISS:      33281
BTB BRANCH_INDIRECT_CALL	ACCESS:     623355  HIT:     515242  MISS:     108113
BTB BRANCH_RETURN	ACCESS:    3396900  HIT:    2505509  MISS:     891391
BTB BRANCH_OTHER ACCESS:          0  HIT:          0  MISS:          0

L2C TOTAL     ACCESS:   20053103  HIT:   13467576  MISS:    6585527  HIT %:    67.1596  MISS %:    32.8404   MPKI: 32.9276
L2C LOAD      ACCESS:   11577078  HIT:    9082808  MISS:    2494270  HIT %:    78.4551  MISS %:    21.5449   MPKI: 12.4713
L2C DATA LOAD MPKI: 9.67901
L2C INSTRUCTION LOAD MPKI: 2.79235
L2C RFO       ACCESS:    3590096  HIT:     158744  MISS:    3431352  HIT %:    4.42172  MISS %:    95.5783   MPKI: 17.1568
L2C PREFETCH  ACCESS:     461430  HIT:      24984  MISS:     436446  HIT %:    5.41447  MISS %:    94.5855   MPKI: 2.18223
AGUS PREFETCH L1 MISS: 0
L2C DATA PREFETCH MPKI: 2.18223
L2C INSTRUCTION PREFETCH MPKI: 0
L2C WRITEBACK ACCESS:    4285300  HIT:    4138536  MISS:     146764  HIT %:    96.5752  MISS %:    3.42482   MPKI: 0.73382
L2C LOAD TRANSLATION ACCESS:     132681  HIT:      58659  MISS:      74022  HIT %:    44.2106  MISS %:    55.7894   MPKI: 0.37011
L2C TRANSLATION FROM L1D PREFETCHER ACCESS:       6518  HIT:       3845  MISS:       2673  HIT %:    58.9905  MISS %:    41.0095   MPKI: 0.013365
L2C PREFETCH  REQUESTED:          0  ISSUED:          0  USEFUL:       4940  USELESS:     434281
L2C USEFUL LOAD PREFETCHES:       4940 PREFETCH ISSUED TO LOWER LEVEL:     436446  ACCURACY: 1.13187
L2C TIMELY PREFETCHES:       4940 LATE PREFETCHES: 0 DROPPED PREFETCHES: 0
L2C PREFETCHES SAME FILL-ORIGIN LEVEL: 0 DIFFERENT FILL-ORIGIN LEVEL: 0
L2C AVERAGE MISS LATENCY: 159.605 cycles
L2C RQ	ACCESS:   15306503	FORWARD:          0	MERGED:          0	TO_CACHE:   15306374
L2C WQ	ACCESS:    4285300	FORWARD:        147	MERGED:          0	TO_CACHE:    4285300
L2C PQ	ACCESS:     461448	FORWARD:          0	MERGED:          0	TO_CACHE:     461430

L2C Instructions Evicting Data 503124
L2C Translations Evicting Data 69596
L2C Data Evicting Data 5244245
L2C Instructions Evicting Instructions 49502
L2C Translations Evicting Instructions 6027
L2C Data Evicting Instructions 490912
L2C Instructions Evicting Translations 5843
L2C Translations Evicting Translations 1072
L2C Data Evicting Translations 68442
L2C Dense regions hint from L2: 0
PSCL5 TOTAL     ACCESS:     124925  HIT:     124925  MISS:          0  HIT %:        100  MISS %:          0   MPKI: 0
PSCL5 LOAD TRANSLATION ACCESS:     119234  HIT:     119234  MISS:          0  HIT %:        100  MISS %:          0   MPKI: 0
PSCL5 TRANSLATION FROM L1D PREFETCHER ACCESS:       5691  HIT:       5691  MISS:          0  HIT %:        100  MISS %:          0   MPKI: 0
PSCL5 PREFETCH  REQUESTED:          0  ISSUED:          0  USEFUL:          0  USELESS:          0
PSCL5 USEFUL LOAD PREFETCHES:          0 PREFETCH ISSUED TO LOWER LEVEL:          0  ACCURACY: -nan
PSCL5 TIMELY PREFETCHES:          0 LATE PREFETCHES: 0 DROPPED PREFETCHES: 0
PSCL5 PREFETCHES SAME FILL-ORIGIN LEVEL: 0 DIFFERENT FILL-ORIGIN LEVEL: 0

PSCL4 TOTAL     ACCESS:     121993  HIT:     121553  MISS:        440  HIT %:    99.6393  MISS %:   0.360676   MPKI: 0.0022
PSCL4 LOAD TRANSLATION ACCESS:     116654  HIT:     116214  MISS:        440  HIT %:    99.6228  MISS %:   0.377184   MPKI: 0.0022
PSCL4 TRANSLATION FROM L1D PREFETCHER ACCESS:       5339  HIT:       5339  MISS:          0  HIT %:        100  MISS %:          0   MPKI: 0
PSCL4 PREFETCH  REQUESTED:          0  ISSUED:          0  USEFUL:          0  USELESS:          0
PSCL4 USEFUL LOAD PREFETCHES:          0 PREFETCH ISSUED TO LOWER LEVEL:          0  ACCURACY: -nan
PSCL4 TIMELY PREFETCHES:          0 LATE PREFETCHES: 0 DROPPED PREFETCHES: 0
PSCL4 PREFETCHES SAME FILL-ORIGIN LEVEL: 0 DIFFERENT FILL-ORIGIN LEVEL: 0

PSCL3 TOTAL     ACCESS:     123372  HIT:     122932  MISS:        440  HIT %:    99.6434  MISS %:   0.356645   MPKI: 0.0022
PSCL3 LOAD TRANSLATION ACCESS:     118050  HIT:     117610  MISS:        440  HIT %:    99.6273  MISS %:   0.372723   MPKI: 0.0022
PSCL3 TRANSLATION FROM L1D PREFETCHER ACCESS:       5322  HIT:       5322  MISS:          0  HIT %:        100  MISS %:          0   MPKI: 0
PSCL3 PREFETCH  REQUESTED:          0  ISSUED:          0  USEFUL:          0  USELESS:          0
PSCL3 USEFUL LOAD PREFETCHES:          0 PREFETCH ISSUED TO LOWER LEVEL:          0  ACCURACY: -nan
PSCL3 TIMELY PREFETCHES:          0 LATE PREFETCHES: 0 DROPPED PREFETCHES: 0
PSCL3 PREFETCHES SAME FILL-ORIGIN LEVEL: 0 DIFFERENT FILL-ORIGIN LEVEL: 0

PSCL2 TOTAL     ACCESS:     123812  HIT:     111075  MISS:      12737  HIT %:    89.7126  MISS %:    10.2874   MPKI: 0.063685
PSCL2 LOAD TRANSLATION ACCESS:     119378  HIT:     106641  MISS:      12737  HIT %:    89.3305  MISS %:    10.6695   MPKI: 0.063685
PSCL2 TRANSLATION FROM L1D PREFETCHER ACCESS:       4434  HIT:       4434  MISS:          0  HIT %:        100  MISS %:          0   MPKI: 0
PSCL2 PREFETCH  REQUESTED:          0  ISSUED:          0  USEFUL:          0  USELESS:          0
PSCL2 USEFUL LOAD PREFETCHES:          0 PREFETCH ISSUED TO LOWER LEVEL:          0  ACCURACY: -nan
PSCL2 TIMELY PREFETCHES:          0 LATE PREFETCHES: 0 DROPPED PREFETCHES: 0
PSCL2 PREFETCHES SAME FILL-ORIGIN LEVEL: 0 DIFFERENT FILL-ORIGIN LEVEL: 0

LLC TOTAL     ACCESS:   10408453  HIT:    4127363  MISS:    6281090  HIT %:     39.654  MISS %:     60.346   MPKI: 31.4054
LLC LOAD      ACCESS:    2494269  HIT:    1581711  MISS:     912558  HIT %:    63.4138  MISS %:    36.5862   MPKI: 4.56279
LLC RFO       ACCESS:    3431323  HIT:     964245  MISS:    2467078  HIT %:    28.1013  MISS %:    71.8987   MPKI: 12.3354
LLC PREFETCH  ACCESS:     436446  HIT:      10659  MISS:     425787  HIT %:    2.44223  MISS %:    97.5578   MPKI: 2.12893
AGUS PREFETCH L1 MISS: 0
LLC WRITEBACK ACCESS:    3969720  HIT:    1515957  MISS:    2453763  HIT %:     38.188  MISS %:     61.812   MPKI: 12.2688
LLC LOAD TRANSLATION ACCESS:      74022  HIT:      53550  MISS:      20472  HIT %:    72.3434  MISS %:    27.6566   MPKI: 0.10236
LLC TRANSLATION FROM L1D PREFETCHER ACCESS:       2673  HIT:       1241  MISS:       1432  HIT %:    46.4272  MISS %:    53.5728   MPKI: 0.00716
LLC PREFETCH  REQUESTED:          0  ISSUED:          0  USEFUL:       1087  USELESS:     426424
LLC USEFUL LOAD PREFETCHES:       1087 PREFETCH ISSUED TO LOWER LEVEL:     425787  ACCURACY: 0.255292
LLC TIMELY PREFETCHES:       1087 LATE PREFETCHES: 0 DROPPED PREFETCHES: 0
LLC PREFETCHES SAME FILL-ORIGIN LEVEL: 0 DIFFERENT FILL-ORIGIN LEVEL: 0
LLC AVERAGE MISS LATENCY: 136.17 cycles
LLC RQ	ACCESS:    6002317	FORWARD:          0	MERGED:          0	TO_CACHE:    6002287
LLC WQ	ACCESS:    3969720	FORWARD:         30	MERGED:          0	TO_CACHE:    3969720
LLC PQ	ACCESS:     436446	FORWARD:          0	MERGED:          0	TO_CACHE:     436446

LLC Dense regions hint to LLC: 0

RAW hits: 2467056
Loads Generated: 47521129
Loads sent to L1D: 45054072
Stores Generated: 33586965
Stores sent to L1D: 33586965
Major fault: 0 Minor fault: 22230
Allocated PAGES: 22230
Completed 
Accuracy : 78.6658
Number of unique groups: 4025883

DRAM Statistics
 CHANNEL 0
 RQ ROW_BUFFER_HIT:    1761592  ROW_BUFFER_MISS:    2065294
 DBUS_CONGESTED:       1768
 WQ ROW_BUFFER_HIT:     530353  ROW_BUFFER_MISS:    2055807  FULL:      62369

 AVG_CONGESTED_CYCLE: 3
 All warmup complete: 2
Channel 0 Bank busy for read cycles: 0
Channel 0 Bank busy for write cycles: 0
Channel 0
Rank 0
0banks busy for read cycles: 182851634
0banks busy for write cycles: 284232
1banks busy for read cycles: 38780073
1banks busy for write cycles: 40949165
2banks busy for read cycles: 13209820
2banks busy for write cycles: 14231803
3banks busy for read cycles: 15002922
3banks busy for write cycles: 5835701
4banks busy for read cycles: 5511580
4banks busy for write cycles: 3591612
5banks busy for read cycles: 4753652
5banks busy for write cycles: 3156385
6banks busy for read cycles: 5913416
6banks busy for write cycles: 3209425
7banks busy for read cycles: 7051211
7banks busy for write cycles: 5654932
8banks busy for read cycles: 20441095
8banks busy for write cycles: 34315416

CPU 0 Branch Prediction Accuracy: 99.9427% MPKI: 0.08834 Average ROB Occupancy at Mispredict: 112.957
Branch types
NOT_BRANCH: 169139646 84.5698%
BRANCH_DIRECT_JUMP: 1705434 0.852717%
BRANCH_INDIRECT: 9970641 4.98532%
BRANCH_CONDITIONAL: 12390177 6.19509%
BRANCH_DIRECT_CALL: 2773558 1.38678%
BRANCH_INDIRECT_CALL: 623355 0.311677%
BRANCH_RETURN: 3396900 1.69845%
BRANCH_OTHER: 0 0%

DRAM PAGES: 1048576
Allocated PAGES: 22230
