
*** ChampSim Multicore Out-of-Order Simulator ***

Warmup Instructions: 50000000
Simulation Instructions: 200000000
Number of CPUs: 1
LLC sets: 2048
LLC ways: 16
Off-chip DRAM Size: 4096 MB Channels: 1 Width: 64-bit Data Rate: 6400 MT/s
CPU 0 runs traces/spec2k17/server_015.champsimtrace.xz
.xz
BTB has LRU replacement policy
ITLB has LRU replacement policy
DTLB has LRU replacement policy
STLB has LRU replacement policy
L1I has LRU replacement policy
L1D has LRU replacement policy
Initialize SRRIP state for L2C
Initialize DRRIP state for LLC
Heartbeat CPU 0 instructions: 10000002 cycles: 2686139 heartbeat IPC: 3.72282 cumulative IPC: 3.72282 (Simulation time: 0 hr 0 min 30 sec) 
Heartbeat CPU 0 instructions: 20000000 cycles: 5411649 heartbeat IPC: 3.66904 cumulative IPC: 3.69573 (Simulation time: 0 hr 1 min 10 sec) 
Heartbeat CPU 0 instructions: 30000001 cycles: 8109311 heartbeat IPC: 3.70691 cumulative IPC: 3.69945 (Simulation time: 0 hr 1 min 43 sec) 
Heartbeat CPU 0 instructions: 40000000 cycles: 10807782 heartbeat IPC: 3.7058 cumulative IPC: 3.70104 (Simulation time: 0 hr 2 min 14 sec) 
Heartbeat CPU 0 instructions: 50000000 cycles: 13506186 heartbeat IPC: 3.70589 cumulative IPC: 3.70201 (Simulation time: 0 hr 2 min 46 sec) 

Warmup complete CPU 0 instructions: 50000004 cycles: 13506187 (Simulation time: 0 hr 2 min 46 sec) 

Heartbeat CPU 0 instructions: 60000002 cycles: 28919829 heartbeat IPC: 0.648776 cumulative IPC: 0.648776 (Simulation time: 0 hr 3 min 35 sec) 
Heartbeat CPU 0 instructions: 70000003 cycles: 44290629 heartbeat IPC: 0.650584 cumulative IPC: 0.649679 (Simulation time: 0 hr 4 min 33 sec) 
Heartbeat CPU 0 instructions: 80000001 cycles: 59664421 heartbeat IPC: 0.650458 cumulative IPC: 0.649938 (Simulation time: 0 hr 5 min 29 sec) 
Heartbeat CPU 0 instructions: 90000000 cycles: 75037162 heartbeat IPC: 0.650502 cumulative IPC: 0.650079 (Simulation time: 0 hr 6 min 18 sec) 
Heartbeat CPU 0 instructions: 100000002 cycles: 90411171 heartbeat IPC: 0.650449 cumulative IPC: 0.650153 (Simulation time: 0 hr 7 min 18 sec) 
Heartbeat CPU 0 instructions: 110000000 cycles: 105777175 heartbeat IPC: 0.650787 cumulative IPC: 0.650259 (Simulation time: 0 hr 8 min 9 sec) 
Heartbeat CPU 0 instructions: 120000000 cycles: 121153140 heartbeat IPC: 0.650366 cumulative IPC: 0.650274 (Simulation time: 0 hr 8 min 56 sec) 
Heartbeat CPU 0 instructions: 130000000 cycles: 136534309 heartbeat IPC: 0.650146 cumulative IPC: 0.650258 (Simulation time: 0 hr 9 min 49 sec) 
Heartbeat CPU 0 instructions: 140000003 cycles: 151896256 heartbeat IPC: 0.650959 cumulative IPC: 0.650336 (Simulation time: 0 hr 10 min 43 sec) 
Heartbeat CPU 0 instructions: 150000002 cycles: 167299257 heartbeat IPC: 0.649224 cumulative IPC: 0.650224 (Simulation time: 0 hr 11 min 44 sec) 
Heartbeat CPU 0 instructions: 160000000 cycles: 182687210 heartbeat IPC: 0.649859 cumulative IPC: 0.650191 (Simulation time: 0 hr 12 min 37 sec) 
Heartbeat CPU 0 instructions: 170000000 cycles: 198073150 heartbeat IPC: 0.649944 cumulative IPC: 0.650171 (Simulation time: 0 hr 13 min 32 sec) 
Heartbeat CPU 0 instructions: 180000001 cycles: 213494458 heartbeat IPC: 0.648453 cumulative IPC: 0.650038 (Simulation time: 0 hr 14 min 30 sec) 
Heartbeat CPU 0 instructions: 190000000 cycles: 228888440 heartbeat IPC: 0.649604 cumulative IPC: 0.650007 (Simulation time: 0 hr 15 min 29 sec) 
Heartbeat CPU 0 instructions: 200000000 cycles: 244296291 heartbeat IPC: 0.64902 cumulative IPC: 0.649941 (Simulation time: 0 hr 16 min 28 sec) 
Heartbeat CPU 0 instructions: 210000003 cycles: 259673716 heartbeat IPC: 0.650304 cumulative IPC: 0.649964 (Simulation time: 0 hr 17 min 22 sec) 
Heartbeat CPU 0 instructions: 220000000 cycles: 275081708 heartbeat IPC: 0.649014 cumulative IPC: 0.649908 (Simulation time: 0 hr 18 min 18 sec) 
Heartbeat CPU 0 instructions: 230000000 cycles: 290456373 heartbeat IPC: 0.650421 cumulative IPC: 0.649936 (Simulation time: 0 hr 19 min 10 sec) 
Heartbeat CPU 0 instructions: 240000002 cycles: 305826030 heartbeat IPC: 0.650633 cumulative IPC: 0.649973 (Simulation time: 0 hr 20 min 4 sec) 
Heartbeat CPU 0 instructions: 250000000 cycles: 321220158 heartbeat IPC: 0.649598 cumulative IPC: 0.649954 (Simulation time: 0 hr 20 min 59 sec) 
Finished CPU 0 instructions: 200000000 cycles: 307713981 cumulative IPC: 0.649954 (Simulation time: 0 hr 20 min 59 sec) 

ChampSim completed all CPUs

Region of Interest Statistics

CPU 0 cumulative IPC: 0.649954 instructions: 200000000 cycles: 307713981
ITLB TOTAL     ACCESS:   33956983  HIT:   32270829  MISS:    1686154  HIT %:    95.0344  MISS %:    4.96556   MPKI: 8.43077
ITLB LOAD TRANSLATION ACCESS:   33956983  HIT:   32270829  MISS:    1686154  HIT %:    95.0344  MISS %:    4.96556   MPKI: 8.43077
ITLB PREFETCH  REQUESTED:          0  ISSUED:          0  USEFUL:          0  USELESS:          0
ITLB USEFUL LOAD PREFETCHES:          0 PREFETCH ISSUED TO LOWER LEVEL:          0  ACCURACY: -nan
ITLB TIMELY PREFETCHES:          0 LATE PREFETCHES: 0 DROPPED PREFETCHES: 0
ITLB PREFETCHES SAME FILL-ORIGIN LEVEL: 0 DIFFERENT FILL-ORIGIN LEVEL: 0
ITLB AVERAGE MISS LATENCY: 9.03342 cycles
ITLB RQ	ACCESS:   39524344	FORWARD:          0	MERGED:    4991216	TO_CACHE:   34533128

DTLB TOTAL     ACCESS:   39477296  HIT:   38733631  MISS:     743665  HIT %:    98.1162  MISS %:    1.88378   MPKI: 3.71833
DTLB LOAD TRANSLATION ACCESS:   39477296  HIT:   38733631  MISS:     743665  HIT %:    98.1162  MISS %:    1.88378   MPKI: 3.71833
DTLB PREFETCH  REQUESTED:          0  ISSUED:          0  USEFUL:          0  USELESS:          0
DTLB USEFUL LOAD PREFETCHES:          0 PREFETCH ISSUED TO LOWER LEVEL:          0  ACCURACY: -nan
DTLB TIMELY PREFETCHES:          0 LATE PREFETCHES: 0 DROPPED PREFETCHES: 0
DTLB PREFETCHES SAME FILL-ORIGIN LEVEL: 0 DIFFERENT FILL-ORIGIN LEVEL: 0
DTLB AVERAGE MISS LATENCY: 8.44737 cycles
DTLB RQ	ACCESS:   59256070	FORWARD:          0	MERGED:   19704873	TO_CACHE:   39551197

STLB TOTAL     ACCESS:   11560244  HIT:   11560239  MISS:          5  HIT %:        100  MISS %: 4.32517e-05   MPKI: 2.5e-05
STLB LOAD TRANSLATION ACCESS:    2429819  HIT:    2429814  MISS:          5  HIT %:    99.9998  MISS %: 0.000205777   MPKI: 2.5e-05
STLB TRANSLATION FROM L1D PREFETCHER ACCESS:    9130425  HIT:    9130425  MISS:          0  HIT %:        100  MISS %:          0   MPKI: 0
STLB PREFETCH  REQUESTED:          0  ISSUED:          0  USEFUL:          1  USELESS:          0
STLB USEFUL LOAD PREFETCHES:          1 PREFETCH ISSUED TO LOWER LEVEL:          0  ACCURACY: inf
STLB TIMELY PREFETCHES:          1 LATE PREFETCHES: 0 DROPPED PREFETCHES: 2436
STLB PREFETCHES SAME FILL-ORIGIN LEVEL: 0 DIFFERENT FILL-ORIGIN LEVEL: 0
STLB AVERAGE MISS LATENCY: 67.2 cycles
STLB RQ	ACCESS:   14942506	FORWARD:          0	MERGED:    3379826	TO_CACHE:   11562680

STLB Hit, L1D data hit: 0
STLB Hit, L2C data hit: 0
STLB Hit, LLC data hit: 0
STLB Hit, LLC data miss: 0
STLB STLB hints to L2: 0
L1D TOTAL     ACCESS:   71760150  HIT:   71751169  MISS:       8981  HIT %:    99.9875  MISS %:  0.0125153   MPKI: 0.044905
L1D LOAD      ACCESS:   26980274  HIT:   26972909  MISS:       7365  HIT %:    99.9727  MISS %:  0.0272977   MPKI: 0.036825
L1D RFO       ACCESS:   32275636  HIT:   32275552  MISS:         84  HIT %:    99.9997  MISS %: 0.000260258   MPKI: 0.00042
L1D PREFETCH  ACCESS:   12504240  HIT:   12502708  MISS:       1532  HIT %:    99.9877  MISS %:  0.0122518   MPKI: 0.00766
AGUS PREFETCH L1 MISS: 0
L1D PREFETCH  REQUESTED:   25627166  ISSUED:   25627166  USEFUL:         68  USELESS:       1428
L1D USEFUL LOAD PREFETCHES:         68 PREFETCH ISSUED TO LOWER LEVEL:       4057  ACCURACY: 1.67612
L1D TIMELY PREFETCHES:         68 LATE PREFETCHES: 2525 DROPPED PREFETCHES: 4121
L1D PREFETCHES SAME FILL-ORIGIN LEVEL: 4057 DIFFERENT FILL-ORIGIN LEVEL: 0
L1D AVERAGE MISS LATENCY: 2.25845e+07 cycles
L1D RQ	ACCESS:   44833603	FORWARD:          0	MERGED:   17500609	TO_CACHE:   26980288
L1D WQ	ACCESS:   32718443	FORWARD:     459112	MERGED:     442661	TO_CACHE:   32275782
L1D PQ	ACCESS:   13114479	FORWARD:          0	MERGED:     495386	TO_CACHE:   12512687

L1D UNIQUE REGIONS ACCESSED: 0
L1D REGIONS CONFLICTS: 0
L1D Cross Page Prefetch Requests: 9696292
L1D Same Page Prefetch Requests: 4574357
L1D ROI Sum of L1D PQ occupancy: 172382688
L1D PREFETCHES PUSHED FROM L2C: 0
L1I TOTAL     ACCESS:   38084090  HIT:   32094554  MISS:    5989536  HIT %:    84.2729  MISS %:    15.7271   MPKI: 29.9477
L1I LOAD      ACCESS:   38084090  HIT:   32094554  MISS:    5989536  HIT %:    84.2729  MISS %:    15.7271   MPKI: 29.9477
L1I PREFETCH  REQUESTED:          0  ISSUED:          0  USEFUL:          0  USELESS:          0
L1I USEFUL LOAD PREFETCHES:          0 PREFETCH ISSUED TO LOWER LEVEL:          0  ACCURACY: -nan
L1I TIMELY PREFETCHES:          0 LATE PREFETCHES: 0 DROPPED PREFETCHES: 0
L1I PREFETCHES SAME FILL-ORIGIN LEVEL: 0 DIFFERENT FILL-ORIGIN LEVEL: 0
L1I AVERAGE MISS LATENCY: 14.0425 cycles
L1I RQ	ACCESS:   60182969	FORWARD:          0	MERGED:   20658625	TO_CACHE:   39524344

BTB TOTAL     ACCESS:   27608398  HIT:   25159622  MISS:    2448776  HIT %:    91.1303  MISS %:    8.86968   MPKI: 12.2439
BTB BRANCH_DIRECT_JUMP	ACCESS:    1623386  HIT:    1623233  MISS:        153
BTB BRANCH_INDIRECT	ACCESS:   12401141  HIT:   11630273  MISS:     770868
BTB BRANCH_CONDITIONAL	ACCESS:    3940144  HIT:    3939912  MISS:        232
BTB BRANCH_DIRECT_CALL	ACCESS:    4362301  HIT:    4361953  MISS:        348
BTB BRANCH_INDIRECT_CALL	ACCESS:     459562  HIT:     405839  MISS:      53723
BTB BRANCH_RETURN	ACCESS:    4821864  HIT:    3198412  MISS:    1623452
BTB BRANCH_OTHER ACCESS:          0  HIT:          0  MISS:          0

L2C TOTAL     ACCESS:    6001229  HIT:    6000937  MISS:        292  HIT %:    99.9951  MISS %: 0.00486567   MPKI: 0.00146
L2C LOAD      ACCESS:    5994376  HIT:    5994146  MISS:        230  HIT %:    99.9962  MISS %: 0.00383693   MPKI: 0.00115
L2C DATA LOAD MPKI: 0.00042
L2C INSTRUCTION LOAD MPKI: 0.00073
L2C RFO       ACCESS:         84  HIT:         78  MISS:          6  HIT %:    92.8571  MISS %:    7.14286   MPKI: 3e-05
L2C PREFETCH  ACCESS:       4057  HIT:       4022  MISS:         35  HIT %:    99.1373  MISS %:   0.862706   MPKI: 0.000175
AGUS PREFETCH L1 MISS: 0
L2C DATA PREFETCH MPKI: 0.000175
L2C INSTRUCTION PREFETCH MPKI: 0
L2C WRITEBACK ACCESS:        259  HIT:        252  MISS:          7  HIT %:    97.2973  MISS %:     2.7027   MPKI: 3.5e-05
L2C LOAD TRANSLATION ACCESS:          6  HIT:          4  MISS:          2  HIT %:    66.6667  MISS %:    33.3333   MPKI: 1e-05
L2C TRANSLATION FROM L1D PREFETCHER ACCESS:       2447  HIT:       2435  MISS:         12  HIT %:    99.5096  MISS %:   0.490396   MPKI: 6e-05
L2C PREFETCH  REQUESTED:          0  ISSUED:          0  USEFUL:         16  USELESS:          7
L2C USEFUL LOAD PREFETCHES:         16 PREFETCH ISSUED TO LOWER LEVEL:         35  ACCURACY: 45.7143
L2C TIMELY PREFETCHES:         16 LATE PREFETCHES: 0 DROPPED PREFETCHES: 0
L2C PREFETCHES SAME FILL-ORIGIN LEVEL: 0 DIFFERENT FILL-ORIGIN LEVEL: 0
L2C AVERAGE MISS LATENCY: 92.0959 cycles
L2C RQ	ACCESS:    5996913	FORWARD:          0	MERGED:          0	TO_CACHE:    5996913
L2C WQ	ACCESS:        259	FORWARD:          0	MERGED:          0	TO_CACHE:        259
L2C PQ	ACCESS:       4057	FORWARD:          0	MERGED:          0	TO_CACHE:       4057

L2C Instructions Evicting Data 113
L2C Translations Evicting Data 10
L2C Data Evicting Data 92
L2C Instructions Evicting Instructions 24
L2C Translations Evicting Instructions 4
L2C Data Evicting Instructions 25
L2C Instructions Evicting Translations 9
L2C Translations Evicting Translations 0
L2C Data Evicting Translations 8
L2C Dense regions hint from L2: 0
PSCL5 TOTAL     ACCESS:       2437  HIT:       2437  MISS:          0  HIT %:        100  MISS %:          0   MPKI: 0
PSCL5 LOAD TRANSLATION ACCESS:          5  HIT:          5  MISS:          0  HIT %:        100  MISS %:          0   MPKI: 0
PSCL5 TRANSLATION FROM L1D PREFETCHER ACCESS:       2432  HIT:       2432  MISS:          0  HIT %:        100  MISS %:          0   MPKI: 0
PSCL5 PREFETCH  REQUESTED:          0  ISSUED:          0  USEFUL:          0  USELESS:          0
PSCL5 USEFUL LOAD PREFETCHES:          0 PREFETCH ISSUED TO LOWER LEVEL:          0  ACCURACY: -nan
PSCL5 TIMELY PREFETCHES:          0 LATE PREFETCHES: 0 DROPPED PREFETCHES: 0
PSCL5 PREFETCHES SAME FILL-ORIGIN LEVEL: 0 DIFFERENT FILL-ORIGIN LEVEL: 0

PSCL4 TOTAL     ACCESS:       2434  HIT:       2434  MISS:          0  HIT %:        100  MISS %:          0   MPKI: 0
PSCL4 LOAD TRANSLATION ACCESS:          5  HIT:          5  MISS:          0  HIT %:        100  MISS %:          0   MPKI: 0
PSCL4 TRANSLATION FROM L1D PREFETCHER ACCESS:       2429  HIT:       2429  MISS:          0  HIT %:        100  MISS %:          0   MPKI: 0
PSCL4 PREFETCH  REQUESTED:          0  ISSUED:          0  USEFUL:          0  USELESS:          0
PSCL4 USEFUL LOAD PREFETCHES:          0 PREFETCH ISSUED TO LOWER LEVEL:          0  ACCURACY: -nan
PSCL4 TIMELY PREFETCHES:          0 LATE PREFETCHES: 0 DROPPED PREFETCHES: 0
PSCL4 PREFETCHES SAME FILL-ORIGIN LEVEL: 0 DIFFERENT FILL-ORIGIN LEVEL: 0

PSCL3 TOTAL     ACCESS:       2437  HIT:       2437  MISS:          0  HIT %:        100  MISS %:          0   MPKI: 0
PSCL3 LOAD TRANSLATION ACCESS:          5  HIT:          5  MISS:          0  HIT %:        100  MISS %:          0   MPKI: 0
PSCL3 TRANSLATION FROM L1D PREFETCHER ACCESS:       2432  HIT:       2432  MISS:          0  HIT %:        100  MISS %:          0   MPKI: 0
PSCL3 PREFETCH  REQUESTED:          0  ISSUED:          0  USEFUL:          0  USELESS:          0
PSCL3 USEFUL LOAD PREFETCHES:          0 PREFETCH ISSUED TO LOWER LEVEL:          0  ACCURACY: -nan
PSCL3 TIMELY PREFETCHES:          0 LATE PREFETCHES: 0 DROPPED PREFETCHES: 0
PSCL3 PREFETCHES SAME FILL-ORIGIN LEVEL: 0 DIFFERENT FILL-ORIGIN LEVEL: 0

PSCL2 TOTAL     ACCESS:       2394  HIT:       2393  MISS:          1  HIT %:    99.9582  MISS %:  0.0417711   MPKI: 5e-06
PSCL2 LOAD TRANSLATION ACCESS:          5  HIT:          4  MISS:          1  HIT %:         80  MISS %:         20   MPKI: 5e-06
PSCL2 TRANSLATION FROM L1D PREFETCHER ACCESS:       2389  HIT:       2389  MISS:          0  HIT %:        100  MISS %:          0   MPKI: 0
PSCL2 PREFETCH  REQUESTED:          0  ISSUED:          0  USEFUL:          0  USELESS:          0
PSCL2 USEFUL LOAD PREFETCHES:          0 PREFETCH ISSUED TO LOWER LEVEL:          0  ACCURACY: -nan
PSCL2 TIMELY PREFETCHES:          0 LATE PREFETCHES: 0 DROPPED PREFETCHES: 0
PSCL2 PREFETCHES SAME FILL-ORIGIN LEVEL: 0 DIFFERENT FILL-ORIGIN LEVEL: 0

LLC TOTAL     ACCESS:        411  HIT:        300  MISS:        111  HIT %:    72.9927  MISS %:    27.0073   MPKI: 0.000555
LLC LOAD      ACCESS:        230  HIT:        165  MISS:         65  HIT %:    71.7391  MISS %:    28.2609   MPKI: 0.000325
LLC RFO       ACCESS:          6  HIT:          3  MISS:          3  HIT %:         50  MISS %:         50   MPKI: 1.5e-05
LLC PREFETCH  ACCESS:         35  HIT:          6  MISS:         29  HIT %:    17.1429  MISS %:    82.8571   MPKI: 0.000145
AGUS PREFETCH L1 MISS: 0
LLC WRITEBACK ACCESS:        126  HIT:        123  MISS:          3  HIT %:     97.619  MISS %:    2.38095   MPKI: 1.5e-05
LLC LOAD TRANSLATION ACCESS:          2  HIT:          1  MISS:          1  HIT %:         50  MISS %:         50   MPKI: 5e-06
LLC TRANSLATION FROM L1D PREFETCHER ACCESS:         12  HIT:          2  MISS:         10  HIT %:    16.6667  MISS %:    83.3333   MPKI: 5e-05
LLC PREFETCH  REQUESTED:          0  ISSUED:          0  USEFUL:          0  USELESS:         20
LLC USEFUL LOAD PREFETCHES:          0 PREFETCH ISSUED TO LOWER LEVEL:         29  ACCURACY: 0
LLC TIMELY PREFETCHES:          0 LATE PREFETCHES: 0 DROPPED PREFETCHES: 0
LLC PREFETCHES SAME FILL-ORIGIN LEVEL: 0 DIFFERENT FILL-ORIGIN LEVEL: 0
LLC AVERAGE MISS LATENCY: 165.243 cycles
LLC RQ	ACCESS:        250	FORWARD:          0	MERGED:          0	TO_CACHE:        250
LLC WQ	ACCESS:        126	FORWARD:          0	MERGED:          0	TO_CACHE:        126
LLC PQ	ACCESS:         35	FORWARD:          0	MERGED:          0	TO_CACHE:         35

LLC Dense regions hint to LLC: 0

RAW hits: 3240250
Loads Generated: 48073854
Loads sent to L1D: 44833603
Stores Generated: 32718439
Stores sent to L1D: 32718443
Major fault: 0 Minor fault: 1999
Allocated PAGES: 1999
Completed 
Accuracy : 92.2383
Number of unique groups: 121165

DRAM Statistics
 CHANNEL 0
 RQ ROW_BUFFER_HIT:          3  ROW_BUFFER_MISS:        105
 DBUS_CONGESTED:          0
 WQ ROW_BUFFER_HIT:          3  ROW_BUFFER_MISS:         70  FULL:          0

 AVG_CONGESTED_CYCLE: -
 All warmup complete: 2
Channel 0 Bank busy for read cycles: 0
Channel 0 Bank busy for write cycles: 0
Channel 0
Rank 0
0banks busy for read cycles: 307690510
0banks busy for write cycles: 60
1banks busy for read cycles: 12072
1banks busy for write cycles: 8499
2banks busy for read cycles: 1329
2banks busy for write cycles: 775
3banks busy for read cycles: 390
3banks busy for write cycles: 199
4banks busy for read cycles: 0
4banks busy for write cycles: 17
5banks busy for read cycles: 0
5banks busy for write cycles: 131
6banks busy for read cycles: 0
6banks busy for write cycles: 0
7banks busy for read cycles: 0
7banks busy for write cycles: 0
8banks busy for read cycles: 0
8banks busy for write cycles: 0

CPU 0 Branch Prediction Accuracy: 99.9167% MPKI: 0.130515 Average ROB Occupancy at Mispredict: 16.6206
Branch types
NOT_BRANCH: 168676427 84.3382%
BRANCH_DIRECT_JUMP: 1623386 0.811693%
BRANCH_INDIRECT: 12401141 6.20057%
BRANCH_CONDITIONAL: 7655294 3.82765%
BRANCH_DIRECT_CALL: 4362301 2.18115%
BRANCH_INDIRECT_CALL: 459562 0.229781%
BRANCH_RETURN: 4821864 2.41093%
BRANCH_OTHER: 0 0%

DRAM PAGES: 1048576
Allocated PAGES: 1999
