
*** ChampSim Multicore Out-of-Order Simulator ***

Warmup Instructions: 50000000
Simulation Instructions: 200000000
Number of CPUs: 1
LLC sets: 2048
LLC ways: 16
Off-chip DRAM Size: 4096 MB Channels: 1 Width: 64-bit Data Rate: 6400 MT/s
CPU 0 runs traces/spec2k17/server_030.champsimtrace.xz
.xz
BTB has LRU replacement policy
ITLB has LRU replacement policy
DTLB has LRU replacement policy
STLB has LRU replacement policy
L1I has LRU replacement policy
L1D has LRU replacement policy
Initialize SRRIP state for L2C
Initialize DRRIP state for LLC
Heartbeat CPU 0 instructions: 10000003 cycles: 2855878 heartbeat IPC: 3.50155 cumulative IPC: 3.50155 (Simulation time: 0 hr 0 min 40 sec) 
Heartbeat CPU 0 instructions: 20000001 cycles: 5701823 heartbeat IPC: 3.51377 cumulative IPC: 3.50765 (Simulation time: 0 hr 1 min 19 sec) 
Heartbeat CPU 0 instructions: 30000002 cycles: 8549513 heartbeat IPC: 3.51162 cumulative IPC: 3.50897 (Simulation time: 0 hr 1 min 59 sec) 
Heartbeat CPU 0 instructions: 40000002 cycles: 11397108 heartbeat IPC: 3.51174 cumulative IPC: 3.50966 (Simulation time: 0 hr 2 min 38 sec) 
Heartbeat CPU 0 instructions: 50000003 cycles: 14245239 heartbeat IPC: 3.51107 cumulative IPC: 3.50994 (Simulation time: 0 hr 3 min 20 sec) 

Warmup complete CPU 0 instructions: 50000003 cycles: 14245239 (Simulation time: 0 hr 3 min 20 sec) 

Heartbeat CPU 0 instructions: 60000001 cycles: 47046558 heartbeat IPC: 0.304866 cumulative IPC: 0.304866 (Simulation time: 0 hr 4 min 30 sec) 
Heartbeat CPU 0 instructions: 70000000 cycles: 79687907 heartbeat IPC: 0.30636 cumulative IPC: 0.305611 (Simulation time: 0 hr 5 min 28 sec) 
Heartbeat CPU 0 instructions: 80000000 cycles: 112397442 heartbeat IPC: 0.305721 cumulative IPC: 0.305648 (Simulation time: 0 hr 6 min 29 sec) 
*** Reached end of trace for Core: 0 Repeating trace: traces/spec2k17/server_030.champsimtrace.xz
Heartbeat CPU 0 instructions: 90000000 cycles: 145005214 heartbeat IPC: 0.306675 cumulative IPC: 0.305904 (Simulation time: 0 hr 7 min 34 sec) 
Heartbeat CPU 0 instructions: 100000003 cycles: 177724789 heartbeat IPC: 0.305628 cumulative IPC: 0.305849 (Simulation time: 0 hr 8 min 37 sec) 
Heartbeat CPU 0 instructions: 110000000 cycles: 210269570 heartbeat IPC: 0.307269 cumulative IPC: 0.306084 (Simulation time: 0 hr 9 min 38 sec) 
Heartbeat CPU 0 instructions: 120000002 cycles: 242900303 heartbeat IPC: 0.30646 cumulative IPC: 0.306138 (Simulation time: 0 hr 10 min 38 sec) 
Heartbeat CPU 0 instructions: 130000003 cycles: 275473474 heartbeat IPC: 0.307001 cumulative IPC: 0.306246 (Simulation time: 0 hr 11 min 38 sec) 
Heartbeat CPU 0 instructions: 140000002 cycles: 307939131 heartbeat IPC: 0.308018 cumulative IPC: 0.306442 (Simulation time: 0 hr 12 min 41 sec) 
Heartbeat CPU 0 instructions: 150000002 cycles: 340177343 heartbeat IPC: 0.310191 cumulative IPC: 0.306812 (Simulation time: 0 hr 13 min 44 sec) 
Heartbeat CPU 0 instructions: 160000000 cycles: 372273597 heartbeat IPC: 0.311563 cumulative IPC: 0.307238 (Simulation time: 0 hr 14 min 47 sec) 
Heartbeat CPU 0 instructions: 170000000 cycles: 404401621 heartbeat IPC: 0.311255 cumulative IPC: 0.307569 (Simulation time: 0 hr 15 min 52 sec) 
*** Reached end of trace for Core: 0 Repeating trace: traces/spec2k17/server_030.champsimtrace.xz
Heartbeat CPU 0 instructions: 180000000 cycles: 436449932 heartbeat IPC: 0.312029 cumulative IPC: 0.307908 (Simulation time: 0 hr 16 min 55 sec) 
Heartbeat CPU 0 instructions: 190000002 cycles: 468661140 heartbeat IPC: 0.310451 cumulative IPC: 0.308088 (Simulation time: 0 hr 17 min 57 sec) 
Heartbeat CPU 0 instructions: 200000000 cycles: 500742676 heartbeat IPC: 0.311706 cumulative IPC: 0.308326 (Simulation time: 0 hr 19 min 3 sec) 
Heartbeat CPU 0 instructions: 210000000 cycles: 532910466 heartbeat IPC: 0.31087 cumulative IPC: 0.308484 (Simulation time: 0 hr 20 min 11 sec) 
Heartbeat CPU 0 instructions: 220000000 cycles: 565056259 heartbeat IPC: 0.311083 cumulative IPC: 0.308636 (Simulation time: 0 hr 21 min 12 sec) 
Heartbeat CPU 0 instructions: 230000000 cycles: 597207570 heartbeat IPC: 0.311029 cumulative IPC: 0.308768 (Simulation time: 0 hr 22 min 16 sec) 
Heartbeat CPU 0 instructions: 240000002 cycles: 629322212 heartbeat IPC: 0.311384 cumulative IPC: 0.308904 (Simulation time: 0 hr 23 min 24 sec) 
Heartbeat CPU 0 instructions: 250000000 cycles: 661365122 heartbeat IPC: 0.312081 cumulative IPC: 0.309062 (Simulation time: 0 hr 24 min 30 sec) 
Finished CPU 0 instructions: 200000001 cycles: 647119884 cumulative IPC: 0.309062 (Simulation time: 0 hr 24 min 30 sec) 

ChampSim completed all CPUs

Region of Interest Statistics

CPU 0 cumulative IPC: 0.309062 instructions: 200000001 cycles: 647119884
ITLB TOTAL     ACCESS:   35742868  HIT:   33515142  MISS:    2227726  HIT %:    93.7674  MISS %:    6.23264   MPKI: 11.1386
ITLB LOAD TRANSLATION ACCESS:   35742868  HIT:   33515142  MISS:    2227726  HIT %:    93.7674  MISS %:    6.23264   MPKI: 11.1386
ITLB PREFETCH  REQUESTED:          0  ISSUED:          0  USEFUL:          0  USELESS:          0
ITLB USEFUL LOAD PREFETCHES:          0 PREFETCH ISSUED TO LOWER LEVEL:          0  ACCURACY: -nan
ITLB TIMELY PREFETCHES:          0 LATE PREFETCHES: 0 DROPPED PREFETCHES: 0
ITLB PREFETCHES SAME FILL-ORIGIN LEVEL: 0 DIFFERENT FILL-ORIGIN LEVEL: 0
ITLB AVERAGE MISS LATENCY: 9.15677 cycles
ITLB RQ	ACCESS:   41986421	FORWARD:          0	MERGED:    5717396	TO_CACHE:   36269025

DTLB TOTAL     ACCESS:   45680241  HIT:   43653103  MISS:    2027138  HIT %:    95.5623  MISS %:    4.43767   MPKI: 10.1357
DTLB LOAD TRANSLATION ACCESS:   45680241  HIT:   43653103  MISS:    2027138  HIT %:    95.5623  MISS %:    4.43767   MPKI: 10.1357
DTLB PREFETCH  REQUESTED:          0  ISSUED:          0  USEFUL:          0  USELESS:          0
DTLB USEFUL LOAD PREFETCHES:          0 PREFETCH ISSUED TO LOWER LEVEL:          0  ACCURACY: -nan
DTLB TIMELY PREFETCHES:          0 LATE PREFETCHES: 0 DROPPED PREFETCHES: 0
DTLB PREFETCHES SAME FILL-ORIGIN LEVEL: 0 DIFFERENT FILL-ORIGIN LEVEL: 0
DTLB AVERAGE MISS LATENCY: 8.88543 cycles
DTLB RQ	ACCESS:   60390553	FORWARD:          0	MERGED:   14649119	TO_CACHE:   45741434

STLB TOTAL     ACCESS:   11881757  HIT:   11853761  MISS:      27996  HIT %:    99.7644  MISS %:   0.235622   MPKI: 0.13998
STLB LOAD TRANSLATION ACCESS:    4254864  HIT:    4227954  MISS:      26910  HIT %:    99.3675  MISS %:   0.632453   MPKI: 0.13455
STLB TRANSLATION FROM L1D PREFETCHER ACCESS:    7626893  HIT:    7625807  MISS:       1086  HIT %:    99.9858  MISS %:  0.0142391   MPKI: 0.00543
STLB PREFETCH  REQUESTED:          0  ISSUED:          0  USEFUL:       1067  USELESS:         18
STLB USEFUL LOAD PREFETCHES:       1067 PREFETCH ISSUED TO LOWER LEVEL:          0  ACCURACY: inf
STLB TIMELY PREFETCHES:       1067 LATE PREFETCHES: 227 DROPPED PREFETCHES: 2710
STLB PREFETCHES SAME FILL-ORIGIN LEVEL: 0 DIFFERENT FILL-ORIGIN LEVEL: 0
STLB AVERAGE MISS LATENCY: 27.7688 cycles
STLB RQ	ACCESS:   14038361	FORWARD:          0	MERGED:    2153547	TO_CACHE:   11884814

STLB Hit, L1D data hit: 0
STLB Hit, L2C data hit: 0
STLB Hit, LLC data hit: 0
STLB Hit, LLC data miss: 0
STLB STLB hints to L2: 0
L1D TOTAL     ACCESS:   67606429  HIT:   61943321  MISS:    5663108  HIT %:    91.6234  MISS %:    8.37658   MPKI: 28.3155
L1D LOAD      ACCESS:   33955277  HIT:   30405494  MISS:    3549783  HIT %:    89.5457  MISS %:    10.4543   MPKI: 17.7489
L1D RFO       ACCESS:   24560595  HIT:   23374439  MISS:    1186156  HIT %:    95.1705  MISS %:    4.82951   MPKI: 5.93078
L1D PREFETCH  ACCESS:    9090557  HIT:    8163388  MISS:     927169  HIT %:    89.8007  MISS %:    10.1993   MPKI: 4.63584
AGUS PREFETCH L1 MISS: 0
L1D PREFETCH  REQUESTED:   20302730  ISSUED:   20302730  USEFUL:     914737  USELESS:      12426
L1D USEFUL LOAD PREFETCHES:     914737 PREFETCH ISSUED TO LOWER LEVEL:    1327100  ACCURACY: 68.9275
L1D TIMELY PREFETCHES:     914737 LATE PREFETCHES: 396636 DROPPED PREFETCHES: 3063
L1D PREFETCHES SAME FILL-ORIGIN LEVEL: 1327100 DIFFERENT FILL-ORIGIN LEVEL: 0
L1D AVERAGE MISS LATENCY: 3.02387e+07 cycles
L1D RQ	ACCESS:   46410954	FORWARD:          0	MERGED:   12012615	TO_CACHE:   34080798
L1D WQ	ACCESS:   26448215	FORWARD:     333691	MERGED:     138460	TO_CACHE:   26309755
L1D PQ	ACCESS:   10519233	FORWARD:          0	MERGED:     719586	TO_CACHE:    9783497

L1D UNIQUE REGIONS ACCESSED: 0
L1D REGIONS CONFLICTS: 0
L1D Cross Page Prefetch Requests: 7475525
L1D Same Page Prefetch Requests: 3253237
L1D ROI Sum of L1D PQ occupancy: 135223841
L1D PREFETCHES PUSHED FROM L2C: 0
L1I TOTAL     ACCESS:   40328494  HIT:   29007879  MISS:   11320615  HIT %:     71.929  MISS %:     28.071   MPKI: 56.6031
L1I LOAD      ACCESS:   40328494  HIT:   29007879  MISS:   11320615  HIT %:     71.929  MISS %:     28.071   MPKI: 56.6031
L1I PREFETCH  REQUESTED:          0  ISSUED:          0  USEFUL:          0  USELESS:          0
L1I USEFUL LOAD PREFETCHES:          0 PREFETCH ISSUED TO LOWER LEVEL:          0  ACCURACY: -nan
L1I TIMELY PREFETCHES:          0 LATE PREFETCHES: 0 DROPPED PREFETCHES: 0
L1I PREFETCHES SAME FILL-ORIGIN LEVEL: 0 DIFFERENT FILL-ORIGIN LEVEL: 0
L1I AVERAGE MISS LATENCY: 15.9722 cycles
L1I RQ	ACCESS:   58181785	FORWARD:          0	MERGED:   16195364	TO_CACHE:   41986421

BTB TOTAL     ACCESS:   30343389  HIT:   17609552  MISS:   12733837  HIT %:    58.0342  MISS %:    41.9658   MPKI: 63.6692
BTB BRANCH_DIRECT_JUMP	ACCESS:    1883728  HIT:    1042713  MISS:     841015
BTB BRANCH_INDIRECT	ACCESS:   11966225  HIT:    7097112  MISS:    4869113
BTB BRANCH_CONDITIONAL	ACCESS:    7323946  HIT:    6018929  MISS:    1305017
BTB BRANCH_DIRECT_CALL	ACCESS:    3854734  HIT:    1768910  MISS:    2085824
BTB BRANCH_INDIRECT_CALL	ACCESS:     730020  HIT:     347975  MISS:     382045
BTB BRANCH_RETURN	ACCESS:    4584736  HIT:    1333913  MISS:    3250823
BTB BRANCH_OTHER ACCESS:          0  HIT:          0  MISS:          0

L2C TOTAL     ACCESS:   19322591  HIT:   18162728  MISS:    1159863  HIT %:    93.9974  MISS %:    6.00263   MPKI: 5.79931
L2C LOAD      ACCESS:   14473759  HIT:   13498352  MISS:     975407  HIT %:    93.2609  MISS %:    6.73914   MPKI: 4.87703
L2C DATA LOAD MPKI: 1.30717
L2C INSTRUCTION LOAD MPKI: 3.56986
L2C RFO       ACCESS:    1182861  HIT:    1098318  MISS:      84543  HIT %:    92.8527  MISS %:    7.14733   MPKI: 0.422715
L2C PREFETCH  ACCESS:    1327068  HIT:    1267554  MISS:      59514  HIT %:    95.5154  MISS %:    4.48462   MPKI: 0.29757
AGUS PREFETCH L1 MISS: 0
L2C DATA PREFETCH MPKI: 0.29757
L2C INSTRUCTION PREFETCH MPKI: 0
L2C WRITEBACK ACCESS:    2306484  HIT:    2274405  MISS:      32079  HIT %:    98.6092  MISS %:    1.39082   MPKI: 0.160395
L2C LOAD TRANSLATION ACCESS:      27682  HIT:      20933  MISS:       6749  HIT %:    75.6195  MISS %:    24.3805   MPKI: 0.033745
L2C TRANSLATION FROM L1D PREFETCHER ACCESS:       4737  HIT:       3166  MISS:       1571  HIT %:    66.8355  MISS %:    33.1645   MPKI: 0.007855
L2C PREFETCH  REQUESTED:          0  ISSUED:          0  USEFUL:       6544  USELESS:      54510
L2C USEFUL LOAD PREFETCHES:       6544 PREFETCH ISSUED TO LOWER LEVEL:      59514  ACCURACY: 10.9957
L2C TIMELY PREFETCHES:       6544 LATE PREFETCHES: 0 DROPPED PREFETCHES: 0
L2C PREFETCHES SAME FILL-ORIGIN LEVEL: 0 DIFFERENT FILL-ORIGIN LEVEL: 0
L2C AVERAGE MISS LATENCY: 31.3953 cycles
L2C RQ	ACCESS:   15689042	FORWARD:          0	MERGED:          0	TO_CACHE:   15689039
L2C WQ	ACCESS:    2306484	FORWARD:         35	MERGED:          0	TO_CACHE:    2306484
L2C PQ	ACCESS:    1327100	FORWARD:          0	MERGED:          0	TO_CACHE:    1327068

L2C Instructions Evicting Data 244552
L2C Translations Evicting Data 4848
L2C Data Evicting Data 178129
L2C Instructions Evicting Instructions 465881
L2C Translations Evicting Instructions 3244
L2C Data Evicting Instructions 222977
L2C Instructions Evicting Translations 3540
L2C Translations Evicting Translations 228
L2C Data Evicting Translations 4385
L2C Dense regions hint from L2: 0
PSCL5 TOTAL     ACCESS:      30704  HIT:      30704  MISS:          0  HIT %:        100  MISS %:          0   MPKI: 0
PSCL5 LOAD TRANSLATION ACCESS:      26683  HIT:      26683  MISS:          0  HIT %:        100  MISS %:          0   MPKI: 0
PSCL5 TRANSLATION FROM L1D PREFETCHER ACCESS:       4021  HIT:       4021  MISS:          0  HIT %:        100  MISS %:          0   MPKI: 0
PSCL5 PREFETCH  REQUESTED:          0  ISSUED:          0  USEFUL:          0  USELESS:          0
PSCL5 USEFUL LOAD PREFETCHES:          0 PREFETCH ISSUED TO LOWER LEVEL:          0  ACCURACY: -nan
PSCL5 TIMELY PREFETCHES:          0 LATE PREFETCHES: 0 DROPPED PREFETCHES: 0
PSCL5 PREFETCHES SAME FILL-ORIGIN LEVEL: 0 DIFFERENT FILL-ORIGIN LEVEL: 0

PSCL4 TOTAL     ACCESS:      24313  HIT:      24262  MISS:         51  HIT %:    99.7902  MISS %:   0.209764   MPKI: 0.000255
PSCL4 LOAD TRANSLATION ACCESS:      21163  HIT:      21112  MISS:         51  HIT %:     99.759  MISS %:   0.240987   MPKI: 0.000255
PSCL4 TRANSLATION FROM L1D PREFETCHER ACCESS:       3150  HIT:       3150  MISS:          0  HIT %:        100  MISS %:          0   MPKI: 0
PSCL4 PREFETCH  REQUESTED:          0  ISSUED:          0  USEFUL:          0  USELESS:          0
PSCL4 USEFUL LOAD PREFETCHES:          0 PREFETCH ISSUED TO LOWER LEVEL:          0  ACCURACY: -nan
PSCL4 TIMELY PREFETCHES:          0 LATE PREFETCHES: 0 DROPPED PREFETCHES: 0
PSCL4 PREFETCHES SAME FILL-ORIGIN LEVEL: 0 DIFFERENT FILL-ORIGIN LEVEL: 0

PSCL3 TOTAL     ACCESS:      29009  HIT:      28938  MISS:         71  HIT %:    99.7552  MISS %:   0.244752   MPKI: 0.000355
PSCL3 LOAD TRANSLATION ACCESS:      25477  HIT:      25406  MISS:         71  HIT %:    99.7213  MISS %:   0.278683   MPKI: 0.000355
PSCL3 TRANSLATION FROM L1D PREFETCHER ACCESS:       3532  HIT:       3532  MISS:          0  HIT %:        100  MISS %:          0   MPKI: 0
PSCL3 PREFETCH  REQUESTED:          0  ISSUED:          0  USEFUL:          0  USELESS:          0
PSCL3 USEFUL LOAD PREFETCHES:          0 PREFETCH ISSUED TO LOWER LEVEL:          0  ACCURACY: -nan
PSCL3 TIMELY PREFETCHES:          0 LATE PREFETCHES: 0 DROPPED PREFETCHES: 0
PSCL3 PREFETCHES SAME FILL-ORIGIN LEVEL: 0 DIFFERENT FILL-ORIGIN LEVEL: 0

PSCL2 TOTAL     ACCESS:      29606  HIT:      28649  MISS:        957  HIT %:    96.7675  MISS %:    3.23245   MPKI: 0.004785
PSCL2 LOAD TRANSLATION ACCESS:      26753  HIT:      25796  MISS:        957  HIT %:    96.4228  MISS %:    3.57717   MPKI: 0.004785
PSCL2 TRANSLATION FROM L1D PREFETCHER ACCESS:       2853  HIT:       2853  MISS:          0  HIT %:        100  MISS %:          0   MPKI: 0
PSCL2 PREFETCH  REQUESTED:          0  ISSUED:          0  USEFUL:          0  USELESS:          0
PSCL2 USEFUL LOAD PREFETCHES:          0 PREFETCH ISSUED TO LOWER LEVEL:          0  ACCURACY: -nan
PSCL2 TIMELY PREFETCHES:          0 LATE PREFETCHES: 0 DROPPED PREFETCHES: 0
PSCL2 PREFETCHES SAME FILL-ORIGIN LEVEL: 0 DIFFERENT FILL-ORIGIN LEVEL: 0

LLC TOTAL     ACCESS:    1246835  HIT:    1228064  MISS:      18771  HIT %:    98.4945  MISS %:    1.50549   MPKI: 0.093855
LLC LOAD      ACCESS:     975407  HIT:     961817  MISS:      13590  HIT %:    98.6067  MISS %:    1.39326   MPKI: 0.06795
LLC RFO       ACCESS:      84543  HIT:      80624  MISS:       3919  HIT %:    95.3645  MISS %:    4.63551   MPKI: 0.019595
LLC PREFETCH  ACCESS:      59514  HIT:      58515  MISS:        999  HIT %:    98.3214  MISS %:     1.6786   MPKI: 0.004995
AGUS PREFETCH L1 MISS: 0
LLC WRITEBACK ACCESS:     119051  HIT:     118931  MISS:        120  HIT %:    99.8992  MISS %:   0.100797   MPKI: 0.0006
LLC LOAD TRANSLATION ACCESS:       6749  HIT:       6699  MISS:         50  HIT %:    99.2591  MISS %:    0.74085   MPKI: 0.00025
LLC TRANSLATION FROM L1D PREFETCHER ACCESS:       1571  HIT:       1478  MISS:         93  HIT %:    94.0802  MISS %:     5.9198   MPKI: 0.000465
LLC PREFETCH  REQUESTED:          0  ISSUED:          0  USEFUL:        654  USELESS:        521
LLC USEFUL LOAD PREFETCHES:        654 PREFETCH ISSUED TO LOWER LEVEL:        999  ACCURACY: 65.4655
LLC TIMELY PREFETCHES:        654 LATE PREFETCHES: 0 DROPPED PREFETCHES: 0
LLC PREFETCHES SAME FILL-ORIGIN LEVEL: 0 DIFFERENT FILL-ORIGIN LEVEL: 0
LLC AVERAGE MISS LATENCY: 137.374 cycles
LLC RQ	ACCESS:    1068270	FORWARD:          0	MERGED:          0	TO_CACHE:    1068270
LLC WQ	ACCESS:     119051	FORWARD:          0	MERGED:          0	TO_CACHE:     119051
LLC PQ	ACCESS:      59514	FORWARD:          0	MERGED:          0	TO_CACHE:      59514

LLC Dense regions hint to LLC: 0

RAW hits: 1435302
Loads Generated: 47846258
Loads sent to L1D: 46410954
Stores Generated: 26448220
Stores sent to L1D: 26448215
Major fault: 0 Minor fault: 2136
Allocated PAGES: 2136
Completed 
Accuracy : 94.663
Number of unique groups: 1506470

DRAM Statistics
 CHANNEL 0
 RQ ROW_BUFFER_HIT:       6887  ROW_BUFFER_MISS:      11763
 DBUS_CONGESTED:          9
 WQ ROW_BUFFER_HIT:        261  ROW_BUFFER_MISS:       3000  FULL:          0

 AVG_CONGESTED_CYCLE: 4
 All warmup complete: 2
Channel 0 Bank busy for read cycles: 0
Channel 0 Bank busy for write cycles: 0
Channel 0
Rank 0
0banks busy for read cycles: 645616068
0banks busy for write cycles: 1719
1banks busy for read cycles: 847378
1banks busy for write cycles: 215733
2banks busy for read cycles: 123711
2banks busy for write cycles: 46467
3banks busy for read cycles: 76357
3banks busy for write cycles: 23331
4banks busy for read cycles: 42383
4banks busy for write cycles: 13489
5banks busy for read cycles: 27726
5banks busy for write cycles: 8622
6banks busy for read cycles: 25297
6banks busy for write cycles: 3617
7banks busy for read cycles: 19762
7banks busy for write cycles: 1734
8banks busy for read cycles: 23411
8banks busy for write cycles: 3080

CPU 0 Branch Prediction Accuracy: 99.878% MPKI: 0.219635 Average ROB Occupancy at Mispredict: 30.0261
Branch types
NOT_BRANCH: 164000674 82.0003%
BRANCH_DIRECT_JUMP: 1883728 0.941864%
BRANCH_INDIRECT: 11966225 5.98311%
BRANCH_CONDITIONAL: 12979997 6.49%
BRANCH_DIRECT_CALL: 3854734 1.92737%
BRANCH_INDIRECT_CALL: 730020 0.36501%
BRANCH_RETURN: 4584736 2.29237%
BRANCH_OTHER: 0 0%

DRAM PAGES: 1048576
Allocated PAGES: 2136
