
*** ChampSim Multicore Out-of-Order Simulator ***

Warmup Instructions: 50000000
Simulation Instructions: 200000000
Number of CPUs: 1
LLC sets: 2048
LLC ways: 16
Off-chip DRAM Size: 4096 MB Channels: 1 Width: 64-bit Data Rate: 6400 MT/s
CPU 0 runs traces/spec2k17/server_004.champsimtrace.xz
.xz
BTB has LRU replacement policy
ITLB has LRU replacement policy
DTLB has LRU replacement policy
STLB has LRU replacement policy
L1I has LRU replacement policy
L1D has LRU replacement policy
Initialize SRRIP state for L2C
Initialize DRRIP state for LLC
Heartbeat CPU 0 instructions: 10000001 cycles: 2792131 heartbeat IPC: 3.58149 cumulative IPC: 3.58149 (Simulation time: 0 hr 0 min 43 sec) 
Heartbeat CPU 0 instructions: 20000001 cycles: 5606704 heartbeat IPC: 3.55294 cumulative IPC: 3.56716 (Simulation time: 0 hr 1 min 28 sec) 
Heartbeat CPU 0 instructions: 30000002 cycles: 9487781 heartbeat IPC: 2.5766 cumulative IPC: 3.16196 (Simulation time: 0 hr 2 min 28 sec) 
Heartbeat CPU 0 instructions: 40000003 cycles: 12700504 heartbeat IPC: 3.11262 cumulative IPC: 3.14948 (Simulation time: 0 hr 3 min 25 sec) 
Heartbeat CPU 0 instructions: 50000000 cycles: 15486933 heartbeat IPC: 3.58882 cumulative IPC: 3.22853 (Simulation time: 0 hr 4 min 11 sec) 

Warmup complete CPU 0 instructions: 50000004 cycles: 15486934 (Simulation time: 0 hr 4 min 11 sec) 

Heartbeat CPU 0 instructions: 60000003 cycles: 40595169 heartbeat IPC: 0.398276 cumulative IPC: 0.398276 (Simulation time: 0 hr 5 min 1 sec) 
Heartbeat CPU 0 instructions: 70000002 cycles: 65626293 heartbeat IPC: 0.399503 cumulative IPC: 0.398888 (Simulation time: 0 hr 5 min 56 sec) 
Heartbeat CPU 0 instructions: 80000002 cycles: 96814267 heartbeat IPC: 0.320636 cumulative IPC: 0.36888 (Simulation time: 0 hr 7 min 12 sec) 
Heartbeat CPU 0 instructions: 90000002 cycles: 128609388 heartbeat IPC: 0.314514 cumulative IPC: 0.353599 (Simulation time: 0 hr 8 min 35 sec) 
Heartbeat CPU 0 instructions: 100000002 cycles: 155596382 heartbeat IPC: 0.370549 cumulative IPC: 0.356864 (Simulation time: 0 hr 9 min 45 sec) 
*** Reached end of trace for Core: 0 Repeating trace: traces/spec2k17/server_004.champsimtrace.xz
Heartbeat CPU 0 instructions: 110000000 cycles: 180444064 heartbeat IPC: 0.402452 cumulative IPC: 0.363731 (Simulation time: 0 hr 10 min 50 sec) 
Heartbeat CPU 0 instructions: 120000000 cycles: 204840156 heartbeat IPC: 0.409902 cumulative IPC: 0.369679 (Simulation time: 0 hr 11 min 57 sec) 
Heartbeat CPU 0 instructions: 130000000 cycles: 237115845 heartbeat IPC: 0.309831 cumulative IPC: 0.360964 (Simulation time: 0 hr 13 min 24 sec) 
Heartbeat CPU 0 instructions: 140000002 cycles: 267468479 heartbeat IPC: 0.329461 cumulative IPC: 0.357169 (Simulation time: 0 hr 15 min 8 sec) 
Heartbeat CPU 0 instructions: 150000003 cycles: 292521253 heartbeat IPC: 0.399157 cumulative IPC: 0.360966 (Simulation time: 0 hr 17 min 0 sec) 
Heartbeat CPU 0 instructions: 160000000 cycles: 317396565 heartbeat IPC: 0.402005 cumulative IPC: 0.364347 (Simulation time: 0 hr 18 min 47 sec) 
Heartbeat CPU 0 instructions: 170000001 cycles: 342176905 heartbeat IPC: 0.403546 cumulative IPC: 0.367321 (Simulation time: 0 hr 20 min 39 sec) 
Heartbeat CPU 0 instructions: 180000000 cycles: 370530141 heartbeat IPC: 0.352693 cumulative IPC: 0.366153 (Simulation time: 0 hr 22 min 41 sec) 
Heartbeat CPU 0 instructions: 190000000 cycles: 404379503 heartbeat IPC: 0.295427 cumulative IPC: 0.359997 (Simulation time: 0 hr 24 min 30 sec) 
Heartbeat CPU 0 instructions: 200000000 cycles: 431218971 heartbeat IPC: 0.372586 cumulative IPC: 0.360809 (Simulation time: 0 hr 27 min 47 sec) 
*** Reached end of trace for Core: 0 Repeating trace: traces/spec2k17/server_004.champsimtrace.xz
Heartbeat CPU 0 instructions: 210000000 cycles: 456081024 heartbeat IPC: 0.402219 cumulative IPC: 0.363146 (Simulation time: 0 hr 31 min 52 sec) 
Heartbeat CPU 0 instructions: 220000000 cycles: 480723108 heartbeat IPC: 0.40581 cumulative IPC: 0.365406 (Simulation time: 0 hr 35 min 55 sec) 
Heartbeat CPU 0 instructions: 230000000 cycles: 510357921 heartbeat IPC: 0.337441 cumulative IPC: 0.363731 (Simulation time: 0 hr 40 min 1 sec) 
Heartbeat CPU 0 instructions: 240000002 cycles: 543189267 heartbeat IPC: 0.304587 cumulative IPC: 0.360051 (Simulation time: 0 hr 42 min 4 sec) 
Heartbeat CPU 0 instructions: 250000001 cycles: 568174120 heartbeat IPC: 0.400242 cumulative IPC: 0.361868 (Simulation time: 0 hr 46 min 1 sec) 
Finished CPU 0 instructions: 200000001 cycles: 552687187 cumulative IPC: 0.361868 (Simulation time: 0 hr 46 min 1 sec) 

ChampSim completed all CPUs

Region of Interest Statistics

CPU 0 cumulative IPC: 0.361868 instructions: 200000001 cycles: 552687187
ITLB TOTAL     ACCESS:   36038341  HIT:   35381966  MISS:     656375  HIT %:    98.1787  MISS %:    1.82132   MPKI: 3.28187
ITLB LOAD TRANSLATION ACCESS:   36038341  HIT:   35381966  MISS:     656375  HIT %:    98.1787  MISS %:    1.82132   MPKI: 3.28187
ITLB PREFETCH  REQUESTED:          0  ISSUED:          0  USEFUL:          0  USELESS:          0
ITLB USEFUL LOAD PREFETCHES:          0 PREFETCH ISSUED TO LOWER LEVEL:          0  ACCURACY: -nan
ITLB TIMELY PREFETCHES:          0 LATE PREFETCHES: 0 DROPPED PREFETCHES: 0
ITLB PREFETCHES SAME FILL-ORIGIN LEVEL: 0 DIFFERENT FILL-ORIGIN LEVEL: 0
ITLB AVERAGE MISS LATENCY: 16.0994 cycles
ITLB RQ	ACCESS:   41930942	FORWARD:          0	MERGED:    5739582	TO_CACHE:   36191360

DTLB TOTAL     ACCESS:   42123777  HIT:   36061591  MISS:    6062186  HIT %:    85.6086  MISS %:    14.3914   MPKI: 30.3109
DTLB LOAD TRANSLATION ACCESS:   42123777  HIT:   36061591  MISS:    6062186  HIT %:    85.6086  MISS %:    14.3914   MPKI: 30.3109
DTLB PREFETCH  REQUESTED:          0  ISSUED:          0  USEFUL:          0  USELESS:          0
DTLB USEFUL LOAD PREFETCHES:          0 PREFETCH ISSUED TO LOWER LEVEL:          0  ACCURACY: -nan
DTLB TIMELY PREFETCHES:          0 LATE PREFETCHES: 0 DROPPED PREFETCHES: 0
DTLB PREFETCHES SAME FILL-ORIGIN LEVEL: 0 DIFFERENT FILL-ORIGIN LEVEL: 0
DTLB AVERAGE MISS LATENCY: 10.1741 cycles
DTLB RQ	ACCESS:   55410925	FORWARD:          0	MERGED:   13141530	TO_CACHE:   42269395

STLB TOTAL     ACCESS:   14215510  HIT:   13808756  MISS:     406754  HIT %:    97.1387  MISS %:    2.86134   MPKI: 2.03377
STLB LOAD TRANSLATION ACCESS:    6718561  HIT:    6313060  MISS:     405501  HIT %:    93.9645  MISS %:    6.03553   MPKI: 2.0275
STLB TRANSLATION FROM L1D PREFETCHER ACCESS:    7496949  HIT:    7495696  MISS:       1253  HIT %:    99.9833  MISS %:  0.0167135   MPKI: 0.006265
STLB PREFETCH  REQUESTED:          0  ISSUED:          0  USEFUL:       1029  USELESS:        224
STLB USEFUL LOAD PREFETCHES:       1029 PREFETCH ISSUED TO LOWER LEVEL:          0  ACCURACY: inf
STLB TIMELY PREFETCHES:       1029 LATE PREFETCHES: 131 DROPPED PREFETCHES: 14892
STLB PREFETCHES SAME FILL-ORIGIN LEVEL: 0 DIFFERENT FILL-ORIGIN LEVEL: 0
STLB AVERAGE MISS LATENCY: 40.6036 cycles
STLB RQ	ACCESS:   17850213	FORWARD:          0	MERGED:    3619566	TO_CACHE:   14230647

STLB Hit, L1D data hit: 0
STLB Hit, L2C data hit: 0
STLB Hit, LLC data hit: 0
STLB Hit, LLC data miss: 0
STLB STLB hints to L2: 0
L1D TOTAL     ACCESS:   63132700  HIT:   54995646  MISS:    8137054  HIT %:    87.1112  MISS %:    12.8888   MPKI: 40.6853
L1D LOAD      ACCESS:   36506624  HIT:   30336199  MISS:    6170425  HIT %:    83.0978  MISS %:    16.9022   MPKI: 30.8521
L1D RFO       ACCESS:   18383202  HIT:   18000711  MISS:     382491  HIT %:    97.9193  MISS %:    2.08065   MPKI: 1.91245
L1D PREFETCH  ACCESS:    8242874  HIT:    6658736  MISS:    1584138  HIT %:    80.7817  MISS %:    19.2183   MPKI: 7.92069
AGUS PREFETCH L1 MISS: 0
L1D PREFETCH  REQUESTED:   22457660  ISSUED:   22457638  USEFUL:    1571609  USELESS:      12521
L1D USEFUL LOAD PREFETCHES:    1571609 PREFETCH ISSUED TO LOWER LEVEL:    2570483  ACCURACY: 61.1406
L1D TIMELY PREFETCHES:    1571609 LATE PREFETCHES: 986232 DROPPED PREFETCHES: 17510
L1D PREFETCHES SAME FILL-ORIGIN LEVEL: 2570483 DIFFERENT FILL-ORIGIN LEVEL: 0
L1D AVERAGE MISS LATENCY: 3.90607e+07 cycles
L1D RQ	ACCESS:   50219768	FORWARD:          0	MERGED:   13393607	TO_CACHE:   36626934
L1D WQ	ACCESS:   19208837	FORWARD:     227417	MERGED:     424846	TO_CACHE:   18783991
L1D PQ	ACCESS:   11325986	FORWARD:          0	MERGED:     166144	TO_CACHE:   11131652

L1D UNIQUE REGIONS ACCESSED: 0
L1D REGIONS CONFLICTS: 0
L1D Cross Page Prefetch Requests: 10311994
L1D Same Page Prefetch Requests: 2836765
L1D ROI Sum of L1D PQ occupancy: 154748199
L1D PREFETCHES PUSHED FROM L2C: 0
L1I TOTAL     ACCESS:   40805289  HIT:   36838179  MISS:    3967110  HIT %:     90.278  MISS %:    9.72205   MPKI: 19.8355
L1I LOAD      ACCESS:   40805289  HIT:   36838179  MISS:    3967110  HIT %:     90.278  MISS %:    9.72205   MPKI: 19.8355
L1I PREFETCH  REQUESTED:          0  ISSUED:          0  USEFUL:          0  USELESS:          0
L1I USEFUL LOAD PREFETCHES:          0 PREFETCH ISSUED TO LOWER LEVEL:          0  ACCURACY: -nan
L1I TIMELY PREFETCHES:          0 LATE PREFETCHES: 0 DROPPED PREFETCHES: 0
L1I PREFETCHES SAME FILL-ORIGIN LEVEL: 0 DIFFERENT FILL-ORIGIN LEVEL: 0
L1I AVERAGE MISS LATENCY: 29.3872 cycles
L1I RQ	ACCESS:   63244908	FORWARD:          0	MERGED:   21313966	TO_CACHE:   41930942

BTB TOTAL     ACCESS:   31141352  HIT:   26161617  MISS:    4979735  HIT %:    84.0093  MISS %:    15.9907   MPKI: 24.8987
BTB BRANCH_DIRECT_JUMP	ACCESS:    2108913  HIT:    1851367  MISS:     257546
BTB BRANCH_INDIRECT	ACCESS:   15497831  HIT:   13163717  MISS:    2334114
BTB BRANCH_CONDITIONAL	ACCESS:    5913619  HIT:    5539694  MISS:     373925
BTB BRANCH_DIRECT_CALL	ACCESS:    3023382  HIT:    2531697  MISS:     491685
BTB BRANCH_INDIRECT_CALL	ACCESS:     781117  HIT:     658398  MISS:     122719
BTB BRANCH_RETURN	ACCESS:    3816490  HIT:    2416744  MISS:    1399746
BTB BRANCH_OTHER ACCESS:          0  HIT:          0  MISS:          0

L2C TOTAL     ACCESS:   13475681  HIT:   10441752  MISS:    3033929  HIT %:    77.4859  MISS %:    22.5141   MPKI: 15.1696
L2C LOAD      ACCESS:    9151226  HIT:    6540607  MISS:    2610619  HIT %:    71.4725  MISS %:    28.5275   MPKI: 13.0531
L2C DATA LOAD MPKI: 4.68067
L2C INSTRUCTION LOAD MPKI: 8.37242
L2C RFO       ACCESS:     382376  HIT:     201369  MISS:     181007  HIT %:    52.6626  MISS %:    47.3374   MPKI: 0.905035
L2C PREFETCH  ACCESS:    2570483  HIT:    2565992  MISS:       4491  HIT %:    99.8253  MISS %:   0.174714   MPKI: 0.022455
AGUS PREFETCH L1 MISS: 0
L2C DATA PREFETCH MPKI: 0.022455
L2C INSTRUCTION PREFETCH MPKI: 0
L2C WRITEBACK ACCESS:     829773  HIT:     780062  MISS:      49711  HIT %:    94.0091  MISS %:    5.99092   MPKI: 0.248555
L2C LOAD TRANSLATION ACCESS:     514681  HIT:     329769  MISS:     184912  HIT %:    64.0725  MISS %:    35.9275   MPKI: 0.92456
L2C TRANSLATION FROM L1D PREFETCHER ACCESS:      27142  HIT:      23953  MISS:       3189  HIT %:    88.2507  MISS %:    11.7493   MPKI: 0.015945
L2C PREFETCH  REQUESTED:          0  ISSUED:          0  USEFUL:       2417  USELESS:       5246
L2C USEFUL LOAD PREFETCHES:       2417 PREFETCH ISSUED TO LOWER LEVEL:       4491  ACCURACY: 53.8187
L2C TIMELY PREFETCHES:       2417 LATE PREFETCHES: 0 DROPPED PREFETCHES: 0
L2C PREFETCHES SAME FILL-ORIGIN LEVEL: 0 DIFFERENT FILL-ORIGIN LEVEL: 0
L2C AVERAGE MISS LATENCY: 46.8388 cycles
L2C RQ	ACCESS:   10075504	FORWARD:          0	MERGED:          0	TO_CACHE:   10075425
L2C WQ	ACCESS:     829773	FORWARD:         79	MERGED:          0	TO_CACHE:     829773
L2C PQ	ACCESS:    2570483	FORWARD:          0	MERGED:          0	TO_CACHE:    2570483

L2C Instructions Evicting Data 638225
L2C Translations Evicting Data 73698
L2C Data Evicting Data 438983
L2C Instructions Evicting Instructions 933885
L2C Translations Evicting Instructions 101941
L2C Data Evicting Instructions 611963
L2C Instructions Evicting Translations 102375
L2C Translations Evicting Translations 12462
L2C Data Evicting Translations 70686
L2C Dense regions hint from L2: 0
PSCL5 TOTAL     ACCESS:     421309  HIT:     421309  MISS:          0  HIT %:        100  MISS %:          0   MPKI: 0
PSCL5 LOAD TRANSLATION ACCESS:     405370  HIT:     405370  MISS:          0  HIT %:        100  MISS %:          0   MPKI: 0
PSCL5 TRANSLATION FROM L1D PREFETCHER ACCESS:      15939  HIT:      15939  MISS:          0  HIT %:        100  MISS %:          0   MPKI: 0
PSCL5 PREFETCH  REQUESTED:          0  ISSUED:          0  USEFUL:          0  USELESS:          0
PSCL5 USEFUL LOAD PREFETCHES:          0 PREFETCH ISSUED TO LOWER LEVEL:          0  ACCURACY: -nan
PSCL5 TIMELY PREFETCHES:          0 LATE PREFETCHES: 0 DROPPED PREFETCHES: 0
PSCL5 PREFETCHES SAME FILL-ORIGIN LEVEL: 0 DIFFERENT FILL-ORIGIN LEVEL: 0

PSCL4 TOTAL     ACCESS:     405390  HIT:     404453  MISS:        937  HIT %:    99.7689  MISS %:   0.231135   MPKI: 0.004685
PSCL4 LOAD TRANSLATION ACCESS:     390079  HIT:     389142  MISS:        937  HIT %:    99.7598  MISS %:   0.240208   MPKI: 0.004685
PSCL4 TRANSLATION FROM L1D PREFETCHER ACCESS:      15311  HIT:      15311  MISS:          0  HIT %:        100  MISS %:          0   MPKI: 0
PSCL4 PREFETCH  REQUESTED:          0  ISSUED:          0  USEFUL:          0  USELESS:          0
PSCL4 USEFUL LOAD PREFETCHES:          0 PREFETCH ISSUED TO LOWER LEVEL:          0  ACCURACY: -nan
PSCL4 TIMELY PREFETCHES:          0 LATE PREFETCHES: 0 DROPPED PREFETCHES: 0
PSCL4 PREFETCHES SAME FILL-ORIGIN LEVEL: 0 DIFFERENT FILL-ORIGIN LEVEL: 0

PSCL3 TOTAL     ACCESS:     417746  HIT:     415258  MISS:       2488  HIT %:    99.4044  MISS %:   0.595577   MPKI: 0.01244
PSCL3 LOAD TRANSLATION ACCESS:     403239  HIT:     400751  MISS:       2488  HIT %:     99.383  MISS %:   0.617004   MPKI: 0.01244
PSCL3 TRANSLATION FROM L1D PREFETCHER ACCESS:      14507  HIT:      14507  MISS:          0  HIT %:        100  MISS %:          0   MPKI: 0
PSCL3 PREFETCH  REQUESTED:          0  ISSUED:          0  USEFUL:          0  USELESS:          0
PSCL3 USEFUL LOAD PREFETCHES:          0 PREFETCH ISSUED TO LOWER LEVEL:          0  ACCURACY: -nan
PSCL3 TIMELY PREFETCHES:          0 LATE PREFETCHES: 0 DROPPED PREFETCHES: 0
PSCL3 PREFETCHES SAME FILL-ORIGIN LEVEL: 0 DIFFERENT FILL-ORIGIN LEVEL: 0

PSCL2 TOTAL     ACCESS:     407229  HIT:     300373  MISS:     106856  HIT %:    73.7602  MISS %:    26.2398   MPKI: 0.53428
PSCL2 LOAD TRANSLATION ACCESS:     406282  HIT:     299426  MISS:     106856  HIT %:    73.6991  MISS %:    26.3009   MPKI: 0.53428
PSCL2 TRANSLATION FROM L1D PREFETCHER ACCESS:        947  HIT:        947  MISS:          0  HIT %:        100  MISS %:          0   MPKI: 0
PSCL2 PREFETCH  REQUESTED:          0  ISSUED:          0  USEFUL:          0  USELESS:          0
PSCL2 USEFUL LOAD PREFETCHES:          0 PREFETCH ISSUED TO LOWER LEVEL:          0  ACCURACY: -nan
PSCL2 TIMELY PREFETCHES:          0 LATE PREFETCHES: 0 DROPPED PREFETCHES: 0
PSCL2 PREFETCHES SAME FILL-ORIGIN LEVEL: 0 DIFFERENT FILL-ORIGIN LEVEL: 0

LLC TOTAL     ACCESS:    3385915  HIT:    3047155  MISS:     338760  HIT %:     89.995  MISS %:     10.005   MPKI: 1.6938
LLC LOAD      ACCESS:    2610618  HIT:    2348117  MISS:     262501  HIT %:    89.9449  MISS %:    10.0551   MPKI: 1.3125
LLC RFO       ACCESS:     181005  HIT:     120420  MISS:      60585  HIT %:    66.5285  MISS %:    33.4715   MPKI: 0.302925
LLC PREFETCH  ACCESS:       4491  HIT:       4163  MISS:        328  HIT %:    92.6965  MISS %:     7.3035   MPKI: 0.00164
AGUS PREFETCH L1 MISS: 0
LLC WRITEBACK ACCESS:     401700  HIT:     393719  MISS:       7981  HIT %:    98.0132  MISS %:    1.98681   MPKI: 0.039905
LLC LOAD TRANSLATION ACCESS:     184912  HIT:     178038  MISS:       6874  HIT %:    96.2826  MISS %:    3.71744   MPKI: 0.03437
LLC TRANSLATION FROM L1D PREFETCHER ACCESS:       3189  HIT:       2698  MISS:        491  HIT %:    84.6033  MISS %:    15.3967   MPKI: 0.002455
LLC PREFETCH  REQUESTED:          0  ISSUED:          0  USEFUL:        292  USELESS:        490
LLC USEFUL LOAD PREFETCHES:        292 PREFETCH ISSUED TO LOWER LEVEL:        328  ACCURACY: 89.0244
LLC TIMELY PREFETCHES:        292 LATE PREFETCHES: 0 DROPPED PREFETCHES: 0
LLC PREFETCHES SAME FILL-ORIGIN LEVEL: 0 DIFFERENT FILL-ORIGIN LEVEL: 0
LLC AVERAGE MISS LATENCY: 155.14 cycles
LLC RQ	ACCESS:    2979727	FORWARD:          0	MERGED:          0	TO_CACHE:    2979724
LLC WQ	ACCESS:     401700	FORWARD:          3	MERGED:          0	TO_CACHE:     401700
LLC PQ	ACCESS:       4491	FORWARD:          0	MERGED:          0	TO_CACHE:       4491

LLC Dense regions hint to LLC: 0

RAW hits: 2541289
Loads Generated: 52761057
Loads sent to L1D: 50219768
Stores Generated: 19208830
Stores sent to L1D: 19208837
Major fault: 0 Minor fault: 7943
Allocated PAGES: 7943
Completed 
Accuracy : 92.0677
Number of unique groups: 4734510

DRAM Statistics
 CHANNEL 0
 RQ ROW_BUFFER_HIT:      72492  ROW_BUFFER_MISS:     258283
 DBUS_CONGESTED:        124
 WQ ROW_BUFFER_HIT:      30185  ROW_BUFFER_MISS:     144532  FULL:          0

 AVG_CONGESTED_CYCLE: 4
 All warmup complete: 2
Channel 0 Bank busy for read cycles: 0
Channel 0 Bank busy for write cycles: 0
Channel 0
Rank 0
0banks busy for read cycles: 496813471
0banks busy for write cycles: 101504
1banks busy for read cycles: 30252311
1banks busy for write cycles: 15309687
2banks busy for read cycles: 3631926
2banks busy for write cycles: 3244647
3banks busy for read cycles: 478251
3banks busy for write cycles: 974402
4banks busy for read cycles: 189090
4banks busy for write cycles: 424772
5banks busy for read cycles: 82312
5banks busy for write cycles: 230481
6banks busy for read cycles: 65050
6banks busy for write cycles: 146253
7banks busy for read cycles: 72792
7banks busy for write cycles: 141070
8banks busy for read cycles: 177425
8banks busy for write cycles: 351744

CPU 0 Branch Prediction Accuracy: 98.8897% MPKI: 2.2922 Average ROB Occupancy at Mispredict: 15.4681
Branch types
NOT_BRANCH: 158710081 79.355%
BRANCH_DIRECT_JUMP: 2108913 1.05446%
BRANCH_INDIRECT: 15497831 7.74892%
BRANCH_CONDITIONAL: 16061872 8.03094%
BRANCH_DIRECT_CALL: 3023382 1.51169%
BRANCH_INDIRECT_CALL: 781117 0.390558%
BRANCH_RETURN: 3816490 1.90824%
BRANCH_OTHER: 0 0%

DRAM PAGES: 1048576
Allocated PAGES: 7943
