
*** ChampSim Multicore Out-of-Order Simulator ***

Warmup Instructions: 50000000
Simulation Instructions: 200000000
Number of CPUs: 1
LLC sets: 2048
LLC ways: 16
Off-chip DRAM Size: 4096 MB Channels: 1 Width: 64-bit Data Rate: 6400 MT/s
CPU 0 runs traces/spec2k17/server_029.champsimtrace.xz
.xz
BTB has LRU replacement policy
ITLB has LRU replacement policy
DTLB has LRU replacement policy
STLB has LRU replacement policy
L1I has LRU replacement policy
L1D has LRU replacement policy
Initialize SRRIP state for L2C
Initialize DRRIP state for LLC
Heartbeat CPU 0 instructions: 10000002 cycles: 2844485 heartbeat IPC: 3.51558 cumulative IPC: 3.51558 (Simulation time: 0 hr 0 min 49 sec) 
Heartbeat CPU 0 instructions: 20000001 cycles: 5682874 heartbeat IPC: 3.52312 cumulative IPC: 3.51935 (Simulation time: 0 hr 1 min 35 sec) 
Heartbeat CPU 0 instructions: 30000002 cycles: 8521932 heartbeat IPC: 3.5223 cumulative IPC: 3.52033 (Simulation time: 0 hr 2 min 21 sec) 
Heartbeat CPU 0 instructions: 40000001 cycles: 11361585 heartbeat IPC: 3.52156 cumulative IPC: 3.52064 (Simulation time: 0 hr 3 min 6 sec) 
Heartbeat CPU 0 instructions: 50000000 cycles: 14201231 heartbeat IPC: 3.52157 cumulative IPC: 3.52082 (Simulation time: 0 hr 3 min 45 sec) 

Warmup complete CPU 0 instructions: 50000004 cycles: 14201232 (Simulation time: 0 hr 3 min 45 sec) 

Heartbeat CPU 0 instructions: 60000002 cycles: 47296169 heartbeat IPC: 0.302161 cumulative IPC: 0.302161 (Simulation time: 0 hr 4 min 50 sec) 
Heartbeat CPU 0 instructions: 70000001 cycles: 80566502 heartbeat IPC: 0.300568 cumulative IPC: 0.301362 (Simulation time: 0 hr 5 min 57 sec) 
Heartbeat CPU 0 instructions: 80000002 cycles: 113448461 heartbeat IPC: 0.304118 cumulative IPC: 0.302275 (Simulation time: 0 hr 6 min 57 sec) 
*** Reached end of trace for Core: 0 Repeating trace: traces/spec2k17/server_029.champsimtrace.xz
Heartbeat CPU 0 instructions: 90000000 cycles: 146277577 heartbeat IPC: 0.304608 cumulative IPC: 0.302855 (Simulation time: 0 hr 7 min 59 sec) 
Heartbeat CPU 0 instructions: 100000003 cycles: 178596514 heartbeat IPC: 0.309416 cumulative IPC: 0.304145 (Simulation time: 0 hr 9 min 0 sec) 
Heartbeat CPU 0 instructions: 110000000 cycles: 210816991 heartbeat IPC: 0.310362 cumulative IPC: 0.305164 (Simulation time: 0 hr 10 min 5 sec) 
Heartbeat CPU 0 instructions: 120000002 cycles: 243400530 heartbeat IPC: 0.306903 cumulative IPC: 0.305411 (Simulation time: 0 hr 11 min 11 sec) 
Heartbeat CPU 0 instructions: 130000000 cycles: 276128782 heartbeat IPC: 0.305546 cumulative IPC: 0.305428 (Simulation time: 0 hr 12 min 16 sec) 
Heartbeat CPU 0 instructions: 140000002 cycles: 308726413 heartbeat IPC: 0.306771 cumulative IPC: 0.305577 (Simulation time: 0 hr 13 min 22 sec) 
Heartbeat CPU 0 instructions: 150000000 cycles: 341269300 heartbeat IPC: 0.307287 cumulative IPC: 0.305747 (Simulation time: 0 hr 14 min 28 sec) 
Heartbeat CPU 0 instructions: 160000001 cycles: 373863333 heartbeat IPC: 0.306805 cumulative IPC: 0.305843 (Simulation time: 0 hr 15 min 31 sec) 
Heartbeat CPU 0 instructions: 170000001 cycles: 406348157 heartbeat IPC: 0.307836 cumulative IPC: 0.306008 (Simulation time: 0 hr 16 min 36 sec) 
*** Reached end of trace for Core: 0 Repeating trace: traces/spec2k17/server_029.champsimtrace.xz
Heartbeat CPU 0 instructions: 180000002 cycles: 438431638 heartbeat IPC: 0.311687 cumulative IPC: 0.306437 (Simulation time: 0 hr 17 min 41 sec) 
Heartbeat CPU 0 instructions: 190000000 cycles: 470307090 heartbeat IPC: 0.313721 cumulative IPC: 0.306946 (Simulation time: 0 hr 18 min 45 sec) 
Heartbeat CPU 0 instructions: 200000002 cycles: 502411790 heartbeat IPC: 0.311481 cumulative IPC: 0.307244 (Simulation time: 0 hr 19 min 48 sec) 
Heartbeat CPU 0 instructions: 210000003 cycles: 534623473 heartbeat IPC: 0.310446 cumulative IPC: 0.307443 (Simulation time: 0 hr 20 min 54 sec) 
Heartbeat CPU 0 instructions: 220000000 cycles: 566871234 heartbeat IPC: 0.310099 cumulative IPC: 0.307598 (Simulation time: 0 hr 22 min 0 sec) 
Heartbeat CPU 0 instructions: 230000003 cycles: 599291607 heartbeat IPC: 0.308448 cumulative IPC: 0.307645 (Simulation time: 0 hr 23 min 6 sec) 
Heartbeat CPU 0 instructions: 240000003 cycles: 631850743 heartbeat IPC: 0.307133 cumulative IPC: 0.307618 (Simulation time: 0 hr 24 min 11 sec) 
Heartbeat CPU 0 instructions: 250000000 cycles: 664358106 heartbeat IPC: 0.307623 cumulative IPC: 0.307618 (Simulation time: 0 hr 25 min 22 sec) 
Finished CPU 0 instructions: 200000000 cycles: 650156881 cumulative IPC: 0.307618 (Simulation time: 0 hr 25 min 22 sec) 

ChampSim completed all CPUs

Region of Interest Statistics

CPU 0 cumulative IPC: 0.307618 instructions: 200000000 cycles: 650156881
ITLB TOTAL     ACCESS:   35634829  HIT:   33433810  MISS:    2201019  HIT %:    93.8234  MISS %:    6.17659   MPKI: 11.0051
ITLB LOAD TRANSLATION ACCESS:   35634829  HIT:   33433810  MISS:    2201019  HIT %:    93.8234  MISS %:    6.17659   MPKI: 11.0051
ITLB PREFETCH  REQUESTED:          0  ISSUED:          0  USEFUL:          0  USELESS:          0
ITLB USEFUL LOAD PREFETCHES:          0 PREFETCH ISSUED TO LOWER LEVEL:          0  ACCURACY: -nan
ITLB TIMELY PREFETCHES:          0 LATE PREFETCHES: 0 DROPPED PREFETCHES: 0
ITLB PREFETCHES SAME FILL-ORIGIN LEVEL: 0 DIFFERENT FILL-ORIGIN LEVEL: 0
ITLB AVERAGE MISS LATENCY: 9.16708 cycles
ITLB RQ	ACCESS:   41818632	FORWARD:          0	MERGED:    5660525	TO_CACHE:   36158107

DTLB TOTAL     ACCESS:   45226907  HIT:   43132088  MISS:    2094819  HIT %:    95.3682  MISS %:     4.6318   MPKI: 10.4741
DTLB LOAD TRANSLATION ACCESS:   45226907  HIT:   43132088  MISS:    2094819  HIT %:    95.3682  MISS %:     4.6318   MPKI: 10.4741
DTLB PREFETCH  REQUESTED:          0  ISSUED:          0  USEFUL:          0  USELESS:          0
DTLB USEFUL LOAD PREFETCHES:          0 PREFETCH ISSUED TO LOWER LEVEL:          0  ACCURACY: -nan
DTLB TIMELY PREFETCHES:          0 LATE PREFETCHES: 0 DROPPED PREFETCHES: 0
DTLB PREFETCHES SAME FILL-ORIGIN LEVEL: 0 DIFFERENT FILL-ORIGIN LEVEL: 0
DTLB AVERAGE MISS LATENCY: 10.0821 cycles
DTLB RQ	ACCESS:   59848726	FORWARD:          0	MERGED:   14569026	TO_CACHE:   45279700

STLB TOTAL     ACCESS:   10678080  HIT:   10623448  MISS:      54632  HIT %:    99.4884  MISS %:   0.511628   MPKI: 0.27316
STLB LOAD TRANSLATION ACCESS:    4295838  HIT:    4242140  MISS:      53698  HIT %:      98.75  MISS %:       1.25   MPKI: 0.26849
STLB TRANSLATION FROM L1D PREFETCHER ACCESS:    6382242  HIT:    6381308  MISS:        934  HIT %:    99.9854  MISS %:  0.0146344   MPKI: 0.00467
STLB PREFETCH  REQUESTED:          0  ISSUED:          0  USEFUL:        925  USELESS:          9
STLB USEFUL LOAD PREFETCHES:        925 PREFETCH ISSUED TO LOWER LEVEL:          0  ACCURACY: inf
STLB TIMELY PREFETCHES:        925 LATE PREFETCHES: 654 DROPPED PREFETCHES: 1416
STLB PREFETCHES SAME FILL-ORIGIN LEVEL: 0 DIFFERENT FILL-ORIGIN LEVEL: 0
STLB AVERAGE MISS LATENCY: 58.9058 cycles
STLB RQ	ACCESS:   12826319	FORWARD:          0	MERGED:    2146068	TO_CACHE:   10680251

STLB Hit, L1D data hit: 0
STLB Hit, L2C data hit: 0
STLB Hit, LLC data hit: 0
STLB Hit, LLC data miss: 0
STLB STLB hints to L2: 0
L1D TOTAL     ACCESS:   65564134  HIT:   59910044  MISS:    5654090  HIT %:    91.3762  MISS %:    8.62375   MPKI: 28.2705
L1D LOAD      ACCESS:   33609170  HIT:   30080057  MISS:    3529113  HIT %:    89.4996  MISS %:    10.5004   MPKI: 17.6456
L1D RFO       ACCESS:   24377673  HIT:   23182826  MISS:    1194847  HIT %:    95.0986  MISS %:     4.9014   MPKI: 5.97424
L1D PREFETCH  ACCESS:    7577291  HIT:    6647161  MISS:     930130  HIT %:    87.7248  MISS %:    12.2752   MPKI: 4.65065
AGUS PREFETCH L1 MISS: 0
L1D PREFETCH  REQUESTED:   17318765  ISSUED:   17318763  USEFUL:     917670  USELESS:      12462
L1D USEFUL LOAD PREFETCHES:     917670 PREFETCH ISSUED TO LOWER LEVEL:    1557794  ACCURACY: 58.9083
L1D TIMELY PREFETCHES:     917670 LATE PREFETCHES: 625045 DROPPED PREFETCHES: 1469
L1D PREFETCHES SAME FILL-ORIGIN LEVEL: 1557794 DIFFERENT FILL-ORIGIN LEVEL: 0
L1D AVERAGE MISS LATENCY: 4.26394e+07 cycles
L1D RQ	ACCESS:   46145904	FORWARD:          0	MERGED:   12101371	TO_CACHE:   33732449
L1D WQ	ACCESS:   26256733	FORWARD:     324222	MERGED:     140456	TO_CACHE:   26116277
L1D PQ	ACCESS:    8788282	FORWARD:          0	MERGED:     245663	TO_CACHE:    8530481

L1D UNIQUE REGIONS ACCESSED: 0
L1D REGIONS CONFLICTS: 0
L1D Cross Page Prefetch Requests: 6100858
L1D Same Page Prefetch Requests: 2703420
L1D ROI Sum of L1D PQ occupancy: 118055314
L1D PREFETCHES PUSHED FROM L2C: 0
L1I TOTAL     ACCESS:   40195812  HIT:   29017085  MISS:   11178727  HIT %:    72.1893  MISS %:    27.8107   MPKI: 55.8936
L1I LOAD      ACCESS:   40195812  HIT:   29017085  MISS:   11178727  HIT %:    72.1893  MISS %:    27.8107   MPKI: 55.8936
L1I PREFETCH  REQUESTED:          0  ISSUED:          0  USEFUL:          0  USELESS:          0
L1I USEFUL LOAD PREFETCHES:          0 PREFETCH ISSUED TO LOWER LEVEL:          0  ACCURACY: -nan
L1I TIMELY PREFETCHES:          0 LATE PREFETCHES: 0 DROPPED PREFETCHES: 0
L1I PREFETCHES SAME FILL-ORIGIN LEVEL: 0 DIFFERENT FILL-ORIGIN LEVEL: 0
L1I AVERAGE MISS LATENCY: 15.8047 cycles
L1I RQ	ACCESS:   58307003	FORWARD:          0	MERGED:   16488371	TO_CACHE:   41818632

BTB TOTAL     ACCESS:   30539919  HIT:   18140103  MISS:   12399816  HIT %:     59.398  MISS %:     40.602   MPKI: 61.9991
BTB BRANCH_DIRECT_JUMP	ACCESS:    2018954  HIT:    1218809  MISS:     800145
BTB BRANCH_INDIRECT	ACCESS:   11947792  HIT:    7156444  MISS:    4791348
BTB BRANCH_CONDITIONAL	ACCESS:    7548510  HIT:    6291453  MISS:    1257057
BTB BRANCH_DIRECT_CALL	ACCESS:    3801012  HIT:    1784913  MISS:    2016099
BTB BRANCH_INDIRECT_CALL	ACCESS:     711313  HIT:     347925  MISS:     363388
BTB BRANCH_RETURN	ACCESS:    4512338  HIT:    1340559  MISS:    3171779
BTB BRANCH_OTHER ACCESS:          0  HIT:          0  MISS:          0

L2C TOTAL     ACCESS:   19214145  HIT:   18031026  MISS:    1183119  HIT %:    93.8425  MISS %:    6.15754   MPKI: 5.91559
L2C LOAD      ACCESS:   14082759  HIT:   13129461  MISS:     953298  HIT %:    93.2307  MISS %:    6.76926   MPKI: 4.76649
L2C DATA LOAD MPKI: 1.61484
L2C INSTRUCTION LOAD MPKI: 3.15165
L2C RFO       ACCESS:    1192226  HIT:    1108483  MISS:      83743  HIT %:    92.9759  MISS %:    7.02409   MPKI: 0.418715
L2C PREFETCH  ACCESS:    1557794  HIT:    1481219  MISS:      76575  HIT %:    95.0844  MISS %:    4.91561   MPKI: 0.382875
AGUS PREFETCH L1 MISS: 0
L2C DATA PREFETCH MPKI: 0.382875
L2C INSTRUCTION PREFETCH MPKI: 0
L2C WRITEBACK ACCESS:    2296721  HIT:    2269016  MISS:      27705  HIT %:    98.7937  MISS %:    1.20628   MPKI: 0.138525
L2C LOAD TRANSLATION ACCESS:      79244  HIT:      38831  MISS:      40413  HIT %:    49.0018  MISS %:    50.9982   MPKI: 0.202065
L2C TRANSLATION FROM L1D PREFETCHER ACCESS:       5401  HIT:       4016  MISS:       1385  HIT %:    74.3566  MISS %:    25.6434   MPKI: 0.006925
L2C PREFETCH  REQUESTED:          0  ISSUED:          0  USEFUL:       8139  USELESS:      69741
L2C USEFUL LOAD PREFETCHES:       8139 PREFETCH ISSUED TO LOWER LEVEL:      76575  ACCURACY: 10.6288
L2C TIMELY PREFETCHES:       8139 LATE PREFETCHES: 0 DROPPED PREFETCHES: 0
L2C PREFETCHES SAME FILL-ORIGIN LEVEL: 0 DIFFERENT FILL-ORIGIN LEVEL: 0
L2C AVERAGE MISS LATENCY: 43.871 cycles
L2C RQ	ACCESS:   15359668	FORWARD:          0	MERGED:          0	TO_CACHE:   15359630
L2C WQ	ACCESS:    2296721	FORWARD:         38	MERGED:          0	TO_CACHE:    2296721
L2C PQ	ACCESS:    1557794	FORWARD:          0	MERGED:          0	TO_CACHE:    1557794

L2C Instructions Evicting Data 219391
L2C Translations Evicting Data 27367
L2C Data Evicting Data 251511
L2C Instructions Evicting Instructions 399449
L2C Translations Evicting Instructions 10577
L2C Data Evicting Instructions 205721
L2C Instructions Evicting Translations 11491
L2C Translations Evicting Translations 3854
L2C Data Evicting Translations 26053
L2C Dense regions hint from L2: 0
PSCL5 TOTAL     ACCESS:      56048  HIT:      56048  MISS:          0  HIT %:        100  MISS %:          0   MPKI: 0
PSCL5 LOAD TRANSLATION ACCESS:      53044  HIT:      53044  MISS:          0  HIT %:        100  MISS %:          0   MPKI: 0
PSCL5 TRANSLATION FROM L1D PREFETCHER ACCESS:       3004  HIT:       3004  MISS:          0  HIT %:        100  MISS %:          0   MPKI: 0
PSCL5 PREFETCH  REQUESTED:          0  ISSUED:          0  USEFUL:          0  USELESS:          0
PSCL5 USEFUL LOAD PREFETCHES:          0 PREFETCH ISSUED TO LOWER LEVEL:          0  ACCURACY: -nan
PSCL5 TIMELY PREFETCHES:          0 LATE PREFETCHES: 0 DROPPED PREFETCHES: 0
PSCL5 PREFETCHES SAME FILL-ORIGIN LEVEL: 0 DIFFERENT FILL-ORIGIN LEVEL: 0

PSCL4 TOTAL     ACCESS:      54410  HIT:      53742  MISS:        668  HIT %:    98.7723  MISS %:    1.22772   MPKI: 0.00334
PSCL4 LOAD TRANSLATION ACCESS:      51794  HIT:      51126  MISS:        668  HIT %:    98.7103  MISS %:    1.28972   MPKI: 0.00334
PSCL4 TRANSLATION FROM L1D PREFETCHER ACCESS:       2616  HIT:       2616  MISS:          0  HIT %:        100  MISS %:          0   MPKI: 0
PSCL4 PREFETCH  REQUESTED:          0  ISSUED:          0  USEFUL:          0  USELESS:          0
PSCL4 USEFUL LOAD PREFETCHES:          0 PREFETCH ISSUED TO LOWER LEVEL:          0  ACCURACY: -nan
PSCL4 TIMELY PREFETCHES:          0 LATE PREFETCHES: 0 DROPPED PREFETCHES: 0
PSCL4 PREFETCHES SAME FILL-ORIGIN LEVEL: 0 DIFFERENT FILL-ORIGIN LEVEL: 0

PSCL3 TOTAL     ACCESS:      55879  HIT:      55210  MISS:        669  HIT %:    98.8028  MISS %:    1.19723   MPKI: 0.003345
PSCL3 LOAD TRANSLATION ACCESS:      53008  HIT:      52339  MISS:        669  HIT %:    98.7379  MISS %:    1.26207   MPKI: 0.003345
PSCL3 TRANSLATION FROM L1D PREFETCHER ACCESS:       2871  HIT:       2871  MISS:          0  HIT %:        100  MISS %:          0   MPKI: 0
PSCL3 PREFETCH  REQUESTED:          0  ISSUED:          0  USEFUL:          0  USELESS:          0
PSCL3 USEFUL LOAD PREFETCHES:          0 PREFETCH ISSUED TO LOWER LEVEL:          0  ACCURACY: -nan
PSCL3 TIMELY PREFETCHES:          0 LATE PREFETCHES: 0 DROPPED PREFETCHES: 0
PSCL3 PREFETCHES SAME FILL-ORIGIN LEVEL: 0 DIFFERENT FILL-ORIGIN LEVEL: 0

PSCL2 TOTAL     ACCESS:      54823  HIT:      28689  MISS:      26134  HIT %:    52.3302  MISS %:    47.6698   MPKI: 0.13067
PSCL2 LOAD TRANSLATION ACCESS:      54158  HIT:      28024  MISS:      26134  HIT %:    51.7449  MISS %:    48.2551   MPKI: 0.13067
PSCL2 TRANSLATION FROM L1D PREFETCHER ACCESS:        665  HIT:        665  MISS:          0  HIT %:        100  MISS %:          0   MPKI: 0
PSCL2 PREFETCH  REQUESTED:          0  ISSUED:          0  USEFUL:          0  USELESS:          0
PSCL2 USEFUL LOAD PREFETCHES:          0 PREFETCH ISSUED TO LOWER LEVEL:          0  ACCURACY: -nan
PSCL2 TIMELY PREFETCHES:          0 LATE PREFETCHES: 0 DROPPED PREFETCHES: 0
PSCL2 PREFETCHES SAME FILL-ORIGIN LEVEL: 0 DIFFERENT FILL-ORIGIN LEVEL: 0

LLC TOTAL     ACCESS:    1272498  HIT:    1151272  MISS:     121226  HIT %:    90.4734  MISS %:    9.52662   MPKI: 0.60613
LLC LOAD      ACCESS:     953298  HIT:     848921  MISS:     104377  HIT %:     89.051  MISS %:     10.949   MPKI: 0.521885
LLC RFO       ACCESS:      83740  HIT:      71483  MISS:      12257  HIT %:     85.363  MISS %:     14.637   MPKI: 0.061285
LLC PREFETCH  ACCESS:      76575  HIT:      75726  MISS:        849  HIT %:    98.8913  MISS %:    1.10872   MPKI: 0.004245
AGUS PREFETCH L1 MISS: 0
LLC WRITEBACK ACCESS:     117087  HIT:     116581  MISS:        506  HIT %:    99.5678  MISS %:   0.432157   MPKI: 0.00253
LLC LOAD TRANSLATION ACCESS:      40413  HIT:      37286  MISS:       3127  HIT %:    92.2624  MISS %:    7.73761   MPKI: 0.015635
LLC TRANSLATION FROM L1D PREFETCHER ACCESS:       1385  HIT:       1275  MISS:        110  HIT %:    92.0578  MISS %:    7.94224   MPKI: 0.00055
LLC PREFETCH  REQUESTED:          0  ISSUED:          0  USEFUL:         95  USELESS:        683
LLC USEFUL LOAD PREFETCHES:         95 PREFETCH ISSUED TO LOWER LEVEL:        849  ACCURACY: 11.1896
LLC TIMELY PREFETCHES:         95 LATE PREFETCHES: 0 DROPPED PREFETCHES: 0
LLC PREFETCHES SAME FILL-ORIGIN LEVEL: 0 DIFFERENT FILL-ORIGIN LEVEL: 0
LLC AVERAGE MISS LATENCY: 142.158 cycles
LLC RQ	ACCESS:    1078839	FORWARD:          0	MERGED:          0	TO_CACHE:    1078836
LLC WQ	ACCESS:     117087	FORWARD:          3	MERGED:          0	TO_CACHE:     117087
LLC PQ	ACCESS:      76575	FORWARD:          0	MERGED:          0	TO_CACHE:      76575

LLC Dense regions hint to LLC: 0

RAW hits: 1416394
Loads Generated: 47562298
Loads sent to L1D: 46145904
Stores Generated: 26256735
Stores sent to L1D: 26256733
Major fault: 0 Minor fault: 6134
Allocated PAGES: 6134
Completed 
Accuracy : 94.4385
Number of unique groups: 1271850

DRAM Statistics
 CHANNEL 0
 RQ ROW_BUFFER_HIT:      42798  ROW_BUFFER_MISS:      77888
 DBUS_CONGESTED:        103
 WQ ROW_BUFFER_HIT:       1939  ROW_BUFFER_MISS:      10971  FULL:          0

 AVG_CONGESTED_CYCLE: 5
 All warmup complete: 2
Channel 0 Bank busy for read cycles: 0
Channel 0 Bank busy for write cycles: 0
Channel 0
Rank 0
0banks busy for read cycles: 639663792
0banks busy for write cycles: 7851
1banks busy for read cycles: 6904448
1banks busy for write cycles: 1246082
2banks busy for read cycles: 915958
2banks busy for write cycles: 228151
3banks busy for read cycles: 259493
3banks busy for write cycles: 79559
4banks busy for read cycles: 184003
4banks busy for write cycles: 36610
5banks busy for read cycles: 132451
5banks busy for write cycles: 15208
6banks busy for read cycles: 126268
6banks busy for write cycles: 6897
7banks busy for read cycles: 118346
7banks busy for write cycles: 6075
8banks busy for read cycles: 166072
8banks busy for write cycles: 59618

CPU 0 Branch Prediction Accuracy: 99.7832% MPKI: 0.392085 Average ROB Occupancy at Mispredict: 44.6066
Branch types
NOT_BRANCH: 163831453 81.9157%
BRANCH_DIRECT_JUMP: 2018954 1.00948%
BRANCH_INDIRECT: 11947792 5.9739%
BRANCH_CONDITIONAL: 13177116 6.58856%
BRANCH_DIRECT_CALL: 3801012 1.90051%
BRANCH_INDIRECT_CALL: 711313 0.355656%
BRANCH_RETURN: 4512338 2.25617%
BRANCH_OTHER: 0 0%

DRAM PAGES: 1048576
Allocated PAGES: 6134
