
*** ChampSim Multicore Out-of-Order Simulator ***

Warmup Instructions: 50000000
Simulation Instructions: 200000000
Number of CPUs: 1
LLC sets: 2048
LLC ways: 16
Off-chip DRAM Size: 4096 MB Channels: 1 Width: 64-bit Data Rate: 6400 MT/s
CPU 0 runs traces/spec2k17/server_031.champsimtrace.xz
.xz
BTB has LRU replacement policy
ITLB has LRU replacement policy
DTLB has LRU replacement policy
STLB has LRU replacement policy
L1I has LRU replacement policy
L1D has LRU replacement policy
Initialize SRRIP state for L2C
Initialize DRRIP state for LLC
Heartbeat CPU 0 instructions: 10000000 cycles: 2836080 heartbeat IPC: 3.52599 cumulative IPC: 3.52599 (Simulation time: 0 hr 0 min 40 sec) 
Heartbeat CPU 0 instructions: 20000000 cycles: 5665717 heartbeat IPC: 3.53402 cumulative IPC: 3.53 (Simulation time: 0 hr 1 min 15 sec) 
Heartbeat CPU 0 instructions: 30000002 cycles: 8494665 heartbeat IPC: 3.53488 cumulative IPC: 3.53163 (Simulation time: 0 hr 1 min 54 sec) 
Heartbeat CPU 0 instructions: 40000003 cycles: 11324238 heartbeat IPC: 3.5341 cumulative IPC: 3.53225 (Simulation time: 0 hr 2 min 30 sec) 
Heartbeat CPU 0 instructions: 50000002 cycles: 14155404 heartbeat IPC: 3.53211 cumulative IPC: 3.53222 (Simulation time: 0 hr 3 min 7 sec) 

Warmup complete CPU 0 instructions: 50000002 cycles: 14155404 (Simulation time: 0 hr 3 min 7 sec) 

Heartbeat CPU 0 instructions: 60000003 cycles: 47326249 heartbeat IPC: 0.30147 cumulative IPC: 0.30147 (Simulation time: 0 hr 4 min 15 sec) 
Heartbeat CPU 0 instructions: 70000001 cycles: 80840512 heartbeat IPC: 0.29838 cumulative IPC: 0.299917 (Simulation time: 0 hr 5 min 15 sec) 
Heartbeat CPU 0 instructions: 80000001 cycles: 113228315 heartbeat IPC: 0.308758 cumulative IPC: 0.302807 (Simulation time: 0 hr 6 min 17 sec) 
*** Reached end of trace for Core: 0 Repeating trace: traces/spec2k17/server_031.champsimtrace.xz
Heartbeat CPU 0 instructions: 90000003 cycles: 146443526 heartbeat IPC: 0.301067 cumulative IPC: 0.30237 (Simulation time: 0 hr 7 min 17 sec) 
Heartbeat CPU 0 instructions: 100000000 cycles: 179502259 heartbeat IPC: 0.302492 cumulative IPC: 0.302395 (Simulation time: 0 hr 8 min 15 sec) 
Heartbeat CPU 0 instructions: 110000000 cycles: 212746921 heartbeat IPC: 0.3008 cumulative IPC: 0.302128 (Simulation time: 0 hr 9 min 17 sec) 
Heartbeat CPU 0 instructions: 120000002 cycles: 245598755 heartbeat IPC: 0.304397 cumulative IPC: 0.30245 (Simulation time: 0 hr 10 min 12 sec) 
Heartbeat CPU 0 instructions: 130000000 cycles: 278587278 heartbeat IPC: 0.303136 cumulative IPC: 0.302535 (Simulation time: 0 hr 11 min 10 sec) 
Heartbeat CPU 0 instructions: 140000003 cycles: 311199893 heartbeat IPC: 0.30663 cumulative IPC: 0.302985 (Simulation time: 0 hr 12 min 16 sec) 
Heartbeat CPU 0 instructions: 150000001 cycles: 344223937 heartbeat IPC: 0.30281 cumulative IPC: 0.302967 (Simulation time: 0 hr 13 min 22 sec) 
Heartbeat CPU 0 instructions: 160000000 cycles: 376407744 heartbeat IPC: 0.310715 cumulative IPC: 0.303656 (Simulation time: 0 hr 14 min 22 sec) 
*** Reached end of trace for Core: 0 Repeating trace: traces/spec2k17/server_031.champsimtrace.xz
Heartbeat CPU 0 instructions: 170000003 cycles: 408947735 heartbeat IPC: 0.307314 cumulative IPC: 0.303957 (Simulation time: 0 hr 15 min 22 sec) 
Heartbeat CPU 0 instructions: 180000000 cycles: 441604797 heartbeat IPC: 0.306212 cumulative IPC: 0.30413 (Simulation time: 0 hr 16 min 23 sec) 
Heartbeat CPU 0 instructions: 190000000 cycles: 474384452 heartbeat IPC: 0.305067 cumulative IPC: 0.304196 (Simulation time: 0 hr 17 min 24 sec) 
Heartbeat CPU 0 instructions: 200000001 cycles: 506988688 heartbeat IPC: 0.306709 cumulative IPC: 0.304363 (Simulation time: 0 hr 18 min 25 sec) 
Heartbeat CPU 0 instructions: 210000001 cycles: 539459928 heartbeat IPC: 0.307965 cumulative IPC: 0.304585 (Simulation time: 0 hr 19 min 26 sec) 
Heartbeat CPU 0 instructions: 220000000 cycles: 572006938 heartbeat IPC: 0.307248 cumulative IPC: 0.304741 (Simulation time: 0 hr 20 min 29 sec) 
Heartbeat CPU 0 instructions: 230000000 cycles: 604761796 heartbeat IPC: 0.305298 cumulative IPC: 0.304772 (Simulation time: 0 hr 21 min 31 sec) 
Heartbeat CPU 0 instructions: 240000000 cycles: 637183390 heartbeat IPC: 0.308436 cumulative IPC: 0.304962 (Simulation time: 0 hr 22 min 40 sec) 
*** Reached end of trace for Core: 0 Repeating trace: traces/spec2k17/server_031.champsimtrace.xz
Heartbeat CPU 0 instructions: 250000000 cycles: 669498252 heartbeat IPC: 0.309455 cumulative IPC: 0.305184 (Simulation time: 0 hr 23 min 42 sec) 
Finished CPU 0 instructions: 200000003 cycles: 655342881 cumulative IPC: 0.305184 (Simulation time: 0 hr 23 min 42 sec) 

ChampSim completed all CPUs

Region of Interest Statistics

CPU 0 cumulative IPC: 0.305184 instructions: 200000003 cycles: 655342881
ITLB TOTAL     ACCESS:   35263191  HIT:   32999060  MISS:    2264131  HIT %:    93.5793  MISS %:    6.42066   MPKI: 11.3207
ITLB LOAD TRANSLATION ACCESS:   35263191  HIT:   32999060  MISS:    2264131  HIT %:    93.5793  MISS %:    6.42066   MPKI: 11.3207
ITLB PREFETCH  REQUESTED:          0  ISSUED:          0  USEFUL:          0  USELESS:          0
ITLB USEFUL LOAD PREFETCHES:          0 PREFETCH ISSUED TO LOWER LEVEL:          0  ACCURACY: -nan
ITLB TIMELY PREFETCHES:          0 LATE PREFETCHES: 0 DROPPED PREFETCHES: 0
ITLB PREFETCHES SAME FILL-ORIGIN LEVEL: 0 DIFFERENT FILL-ORIGIN LEVEL: 0
ITLB AVERAGE MISS LATENCY: 9.15003 cycles
ITLB RQ	ACCESS:   41637430	FORWARD:          0	MERGED:    5831582	TO_CACHE:   35805848

DTLB TOTAL     ACCESS:   46130557  HIT:   43986036  MISS:    2144521  HIT %:    95.3512  MISS %:    4.64881   MPKI: 10.7226
DTLB LOAD TRANSLATION ACCESS:   46130557  HIT:   43986036  MISS:    2144521  HIT %:    95.3512  MISS %:    4.64881   MPKI: 10.7226
DTLB PREFETCH  REQUESTED:          0  ISSUED:          0  USEFUL:          0  USELESS:          0
DTLB USEFUL LOAD PREFETCHES:          0 PREFETCH ISSUED TO LOWER LEVEL:          0  ACCURACY: -nan
DTLB TIMELY PREFETCHES:          0 LATE PREFETCHES: 0 DROPPED PREFETCHES: 0
DTLB PREFETCHES SAME FILL-ORIGIN LEVEL: 0 DIFFERENT FILL-ORIGIN LEVEL: 0
DTLB AVERAGE MISS LATENCY: 10.0496 cycles
DTLB RQ	ACCESS:   60950083	FORWARD:          0	MERGED:   14756909	TO_CACHE:   46193174

STLB TOTAL     ACCESS:   10676007  HIT:   10620401  MISS:      55606  HIT %:    99.4791  MISS %:    0.52085   MPKI: 0.27803
STLB LOAD TRANSLATION ACCESS:    4408652  HIT:    4353806  MISS:      54846  HIT %:    98.7559  MISS %:    1.24405   MPKI: 0.27423
STLB TRANSLATION FROM L1D PREFETCHER ACCESS:    6267355  HIT:    6266595  MISS:        760  HIT %:    99.9879  MISS %:  0.0121263   MPKI: 0.0038
STLB PREFETCH  REQUESTED:          0  ISSUED:          0  USEFUL:        738  USELESS:         22
STLB USEFUL LOAD PREFETCHES:        738 PREFETCH ISSUED TO LOWER LEVEL:          0  ACCURACY: inf
STLB TIMELY PREFETCHES:        738 LATE PREFETCHES: 332 DROPPED PREFETCHES: 513
STLB PREFETCHES SAME FILL-ORIGIN LEVEL: 0 DIFFERENT FILL-ORIGIN LEVEL: 0
STLB AVERAGE MISS LATENCY: 57.0757 cycles
STLB RQ	ACCESS:   12306523	FORWARD:          0	MERGED:    1629601	TO_CACHE:   10676922

STLB Hit, L1D data hit: 0
STLB Hit, L2C data hit: 0
STLB Hit, LLC data hit: 0
STLB Hit, LLC data miss: 0
STLB STLB hints to L2: 0
L1D TOTAL     ACCESS:   66495575  HIT:   61717639  MISS:    4777936  HIT %:    92.8147  MISS %:    7.18534   MPKI: 23.8897
L1D LOAD      ACCESS:   33913194  HIT:   30897386  MISS:    3015808  HIT %:    91.1073  MISS %:    8.89273   MPKI: 15.079
L1D RFO       ACCESS:   25157896  HIT:   23988093  MISS:    1169803  HIT %:    95.3502  MISS %:    4.64984   MPKI: 5.84901
L1D PREFETCH  ACCESS:    7424485  HIT:    6832160  MISS:     592325  HIT %:     92.022  MISS %:    7.97799   MPKI: 2.96162
AGUS PREFETCH L1 MISS: 0
L1D PREFETCH  REQUESTED:   16061140  ISSUED:   16061140  USEFUL:     584910  USELESS:       7414
L1D USEFUL LOAD PREFETCHES:     584910 PREFETCH ISSUED TO LOWER LEVEL:     835269  ACCURACY: 70.0265
L1D TIMELY PREFETCHES:     584910 LATE PREFETCHES: 239696 DROPPED PREFETCHES: 566
L1D PREFETCHES SAME FILL-ORIGIN LEVEL: 835269 DIFFERENT FILL-ORIGIN LEVEL: 0
L1D AVERAGE MISS LATENCY: 2.24767e+07 cycles
L1D RQ	ACCESS:   46633266	FORWARD:          0	MERGED:   12264347	TO_CACHE:   34045727
L1D WQ	ACCESS:   27052930	FORWARD:     333640	MERGED:     148574	TO_CACHE:   26904356
L1D PQ	ACCESS:    8163270	FORWARD:          0	MERGED:     254952	TO_CACHE:    7897870

L1D UNIQUE REGIONS ACCESSED: 0
L1D REGIONS CONFLICTS: 0
L1D Cross Page Prefetch Requests: 6220900
L1D Same Page Prefetch Requests: 1953254
L1D ROI Sum of L1D PQ occupancy: 109542342
L1D PREFETCHES PUSHED FROM L2C: 0
L1I TOTAL     ACCESS:   39954023  HIT:   28452574  MISS:   11501449  HIT %:    71.2133  MISS %:    28.7867   MPKI: 57.5072
L1I LOAD      ACCESS:   39954023  HIT:   28452574  MISS:   11501449  HIT %:    71.2133  MISS %:    28.7867   MPKI: 57.5072
L1I PREFETCH  REQUESTED:          0  ISSUED:          0  USEFUL:          0  USELESS:          0
L1I USEFUL LOAD PREFETCHES:          0 PREFETCH ISSUED TO LOWER LEVEL:          0  ACCURACY: -nan
L1I TIMELY PREFETCHES:          0 LATE PREFETCHES: 0 DROPPED PREFETCHES: 0
L1I PREFETCHES SAME FILL-ORIGIN LEVEL: 0 DIFFERENT FILL-ORIGIN LEVEL: 0
L1I AVERAGE MISS LATENCY: 15.5177 cycles
L1I RQ	ACCESS:   58731142	FORWARD:          0	MERGED:   17093712	TO_CACHE:   41637430

BTB TOTAL     ACCESS:   30618914  HIT:   17904735  MISS:   12714179  HIT %:    58.4761  MISS %:    41.5239   MPKI: 63.5709
BTB BRANCH_DIRECT_JUMP	ACCESS:    2097827  HIT:    1276069  MISS:     821758
BTB BRANCH_INDIRECT	ACCESS:   12319461  HIT:    7406288  MISS:    4913173
BTB BRANCH_CONDITIONAL	ACCESS:    6937859  HIT:    5651432  MISS:    1286427
BTB BRANCH_DIRECT_CALL	ACCESS:    3904059  HIT:    1837298  MISS:    2066761
BTB BRANCH_INDIRECT_CALL	ACCESS:     727841  HIT:     354479  MISS:     373362
BTB BRANCH_RETURN	ACCESS:    4631867  HIT:    1379169  MISS:    3252698
BTB BRANCH_OTHER ACCESS:          0  HIT:          0  MISS:          0

L2C TOTAL     ACCESS:   18587358  HIT:   17554726  MISS:    1032632  HIT %:    94.4444  MISS %:    5.55556   MPKI: 5.16316
L2C LOAD      ACCESS:   14277539  HIT:   13424623  MISS:     852916  HIT %:    94.0262  MISS %:    5.97383   MPKI: 4.26458
L2C DATA LOAD MPKI: 1.59559
L2C INSTRUCTION LOAD MPKI: 2.66899
L2C RFO       ACCESS:    1166551  HIT:    1086845  MISS:      79706  HIT %:    93.1674  MISS %:    6.83262   MPKI: 0.39853
L2C PREFETCH  ACCESS:     835252  HIT:     802831  MISS:      32421  HIT %:    96.1184  MISS %:    3.88158   MPKI: 0.162105
AGUS PREFETCH L1 MISS: 0
L2C DATA PREFETCH MPKI: 0.162105
L2C INSTRUCTION PREFETCH MPKI: 0
L2C WRITEBACK ACCESS:    2222720  HIT:    2192332  MISS:      30388  HIT %:    98.6328  MISS %:    1.36715   MPKI: 0.15194
L2C LOAD TRANSLATION ACCESS:      82402  HIT:      45992  MISS:      36410  HIT %:    55.8142  MISS %:    44.1858   MPKI: 0.18205
L2C TRANSLATION FROM L1D PREFETCHER ACCESS:       2894  HIT:       2103  MISS:        791  HIT %:    72.6676  MISS %:    27.3324   MPKI: 0.003955
L2C PREFETCH  REQUESTED:          0  ISSUED:          0  USEFUL:       3179  USELESS:      29994
L2C USEFUL LOAD PREFETCHES:       3179 PREFETCH ISSUED TO LOWER LEVEL:      32421  ACCURACY: 9.80537
L2C TIMELY PREFETCHES:       3179 LATE PREFETCHES: 0 DROPPED PREFETCHES: 0
L2C PREFETCHES SAME FILL-ORIGIN LEVEL: 0 DIFFERENT FILL-ORIGIN LEVEL: 0
L2C AVERAGE MISS LATENCY: 46.0168 cycles
L2C RQ	ACCESS:   15529413	FORWARD:          0	MERGED:          0	TO_CACHE:   15529387
L2C WQ	ACCESS:    2222720	FORWARD:         43	MERGED:          0	TO_CACHE:    2222720
L2C PQ	ACCESS:     835269	FORWARD:          0	MERGED:          0	TO_CACHE:     835252

L2C Instructions Evicting Data 180918
L2C Translations Evicting Data 25926
L2C Data Evicting Data 243495
L2C Instructions Evicting Instructions 345179
L2C Translations Evicting Instructions 7789
L2C Data Evicting Instructions 162113
L2C Instructions Evicting Translations 7701
L2C Translations Evicting Translations 3486
L2C Data Evicting Translations 25637
L2C Dense regions hint from L2: 0
PSCL5 TOTAL     ACCESS:      56118  HIT:      56118  MISS:          0  HIT %:        100  MISS %:          0   MPKI: 0
PSCL5 LOAD TRANSLATION ACCESS:      54514  HIT:      54514  MISS:          0  HIT %:        100  MISS %:          0   MPKI: 0
PSCL5 TRANSLATION FROM L1D PREFETCHER ACCESS:       1604  HIT:       1604  MISS:          0  HIT %:        100  MISS %:          0   MPKI: 0
PSCL5 PREFETCH  REQUESTED:          0  ISSUED:          0  USEFUL:          0  USELESS:          0
PSCL5 USEFUL LOAD PREFETCHES:          0 PREFETCH ISSUED TO LOWER LEVEL:          0  ACCURACY: -nan
PSCL5 TIMELY PREFETCHES:          0 LATE PREFETCHES: 0 DROPPED PREFETCHES: 0
PSCL5 PREFETCHES SAME FILL-ORIGIN LEVEL: 0 DIFFERENT FILL-ORIGIN LEVEL: 0

PSCL4 TOTAL     ACCESS:      54033  HIT:      53286  MISS:        747  HIT %:    98.6175  MISS %:    1.38249   MPKI: 0.003735
PSCL4 LOAD TRANSLATION ACCESS:      52819  HIT:      52072  MISS:        747  HIT %:    98.5857  MISS %:    1.41426   MPKI: 0.003735
PSCL4 TRANSLATION FROM L1D PREFETCHER ACCESS:       1214  HIT:       1214  MISS:          0  HIT %:        100  MISS %:          0   MPKI: 0
PSCL4 PREFETCH  REQUESTED:          0  ISSUED:          0  USEFUL:          0  USELESS:          0
PSCL4 USEFUL LOAD PREFETCHES:          0 PREFETCH ISSUED TO LOWER LEVEL:          0  ACCURACY: -nan
PSCL4 TIMELY PREFETCHES:          0 LATE PREFETCHES: 0 DROPPED PREFETCHES: 0
PSCL4 PREFETCHES SAME FILL-ORIGIN LEVEL: 0 DIFFERENT FILL-ORIGIN LEVEL: 0

PSCL3 TOTAL     ACCESS:      55869  HIT:      55119  MISS:        750  HIT %:    98.6576  MISS %:    1.34243   MPKI: 0.00375
PSCL3 LOAD TRANSLATION ACCESS:      54437  HIT:      53687  MISS:        750  HIT %:    98.6223  MISS %:    1.37774   MPKI: 0.00375
PSCL3 TRANSLATION FROM L1D PREFETCHER ACCESS:       1432  HIT:       1432  MISS:          0  HIT %:        100  MISS %:          0   MPKI: 0
PSCL3 PREFETCH  REQUESTED:          0  ISSUED:          0  USEFUL:          0  USELESS:          0
PSCL3 USEFUL LOAD PREFETCHES:          0 PREFETCH ISSUED TO LOWER LEVEL:          0  ACCURACY: -nan
PSCL3 TIMELY PREFETCHES:          0 LATE PREFETCHES: 0 DROPPED PREFETCHES: 0
PSCL3 PREFETCHES SAME FILL-ORIGIN LEVEL: 0 DIFFERENT FILL-ORIGIN LEVEL: 0

PSCL2 TOTAL     ACCESS:      55650  HIT:      28226  MISS:      27424  HIT %:    50.7206  MISS %:    49.2794   MPKI: 0.13712
PSCL2 LOAD TRANSLATION ACCESS:      55352  HIT:      27928  MISS:      27424  HIT %:    50.4553  MISS %:    49.5447   MPKI: 0.13712
PSCL2 TRANSLATION FROM L1D PREFETCHER ACCESS:        298  HIT:        298  MISS:          0  HIT %:        100  MISS %:          0   MPKI: 0
PSCL2 PREFETCH  REQUESTED:          0  ISSUED:          0  USEFUL:          0  USELESS:          0
PSCL2 USEFUL LOAD PREFETCHES:          0 PREFETCH ISSUED TO LOWER LEVEL:          0  ACCURACY: -nan
PSCL2 TIMELY PREFETCHES:          0 LATE PREFETCHES: 0 DROPPED PREFETCHES: 0
PSCL2 PREFETCHES SAME FILL-ORIGIN LEVEL: 0 DIFFERENT FILL-ORIGIN LEVEL: 0

LLC TOTAL     ACCESS:    1108031  HIT:     981904  MISS:     126127  HIT %:     88.617  MISS %:     11.383   MPKI: 0.630635
LLC LOAD      ACCESS:     852915  HIT:     744018  MISS:     108897  HIT %:    87.2324  MISS %:    12.7676   MPKI: 0.544485
LLC RFO       ACCESS:      79706  HIT:      66744  MISS:      12962  HIT %:    83.7377  MISS %:    16.2623   MPKI: 0.06481
LLC PREFETCH  ACCESS:      32421  HIT:      32249  MISS:        172  HIT %:    99.4695  MISS %:    0.53052   MPKI: 0.00086
AGUS PREFETCH L1 MISS: 0
LLC WRITEBACK ACCESS:     105788  HIT:     105160  MISS:        628  HIT %:    99.4064  MISS %:    0.59364   MPKI: 0.00314
LLC LOAD TRANSLATION ACCESS:      36410  HIT:      33051  MISS:       3359  HIT %:    90.7745  MISS %:    9.22549   MPKI: 0.016795
LLC TRANSLATION FROM L1D PREFETCHER ACCESS:        791  HIT:        682  MISS:        109  HIT %:      86.22  MISS %:      13.78   MPKI: 0.000545
LLC PREFETCH  REQUESTED:          0  ISSUED:          0  USEFUL:         47  USELESS:        162
LLC USEFUL LOAD PREFETCHES:         47 PREFETCH ISSUED TO LOWER LEVEL:        172  ACCURACY: 27.3256
LLC TIMELY PREFETCHES:         47 LATE PREFETCHES: 0 DROPPED PREFETCHES: 0
LLC PREFETCHES SAME FILL-ORIGIN LEVEL: 0 DIFFERENT FILL-ORIGIN LEVEL: 0
LLC AVERAGE MISS LATENCY: 138.199 cycles
LLC RQ	ACCESS:     969823	FORWARD:          0	MERGED:          0	TO_CACHE:     969822
LLC WQ	ACCESS:     105788	FORWARD:          1	MERGED:          0	TO_CACHE:     105788
LLC PQ	ACCESS:      32421	FORWARD:          0	MERGED:          0	TO_CACHE:      32421

LLC Dense regions hint to LLC: 0

RAW hits: 1442089
Loads Generated: 48075355
Loads sent to L1D: 46633266
Stores Generated: 27052894
Stores sent to L1D: 27052930
Major fault: 0 Minor fault: 6261
Allocated PAGES: 6261
Completed 
Accuracy : 94.9013
Number of unique groups: 1315545

DRAM Statistics
 CHANNEL 0
 RQ ROW_BUFFER_HIT:      45167  ROW_BUFFER_MISS:      80303
 DBUS_CONGESTED:        116
 WQ ROW_BUFFER_HIT:       2014  ROW_BUFFER_MISS:      10685  FULL:          0

 AVG_CONGESTED_CYCLE: 5
 All warmup complete: 2
Channel 0 Bank busy for read cycles: 0
Channel 0 Bank busy for write cycles: 0
Channel 0
Rank 0
0banks busy for read cycles: 644198520
0banks busy for write cycles: 7909
1banks busy for read cycles: 7567022
1banks busy for write cycles: 1270198
2banks busy for read cycles: 930685
2banks busy for write cycles: 211066
3banks busy for read cycles: 280380
3banks busy for write cycles: 87462
4banks busy for read cycles: 184308
4banks busy for write cycles: 39899
5banks busy for read cycles: 142378
5banks busy for write cycles: 19481
6banks busy for read cycles: 130595
6banks busy for write cycles: 12351
7banks busy for read cycles: 115692
7banks busy for write cycles: 6668
8banks busy for read cycles: 124597
8banks busy for write cycles: 13671

CPU 0 Branch Prediction Accuracy: 99.767% MPKI: 0.417705 Average ROB Occupancy at Mispredict: 43.2923
Branch types
NOT_BRANCH: 164151455 82.0757%
BRANCH_DIRECT_JUMP: 2097827 1.04891%
BRANCH_INDIRECT: 12319461 6.15973%
BRANCH_CONDITIONAL: 12167282 6.08364%
BRANCH_DIRECT_CALL: 3904059 1.95203%
BRANCH_INDIRECT_CALL: 727841 0.36392%
BRANCH_RETURN: 4631867 2.31593%
BRANCH_OTHER: 0 0%

DRAM PAGES: 1048576
Allocated PAGES: 6261
