
*** ChampSim Multicore Out-of-Order Simulator ***

Warmup Instructions: 50000000
Simulation Instructions: 200000000
Number of CPUs: 1
LLC sets: 2048
LLC ways: 16
Off-chip DRAM Size: 4096 MB Channels: 1 Width: 64-bit Data Rate: 6400 MT/s
CPU 0 runs traces/spec2k17/server_011.champsimtrace.xz
.xz
BTB has LRU replacement policy
ITLB has LRU replacement policy
DTLB has LRU replacement policy
STLB has LRU replacement policy
L1I has LRU replacement policy
L1D has LRU replacement policy
Initialize SRRIP state for L2C
Initialize DRRIP state for LLC
Heartbeat CPU 0 instructions: 10000002 cycles: 2779681 heartbeat IPC: 3.59754 cumulative IPC: 3.59754 (Simulation time: 0 hr 0 min 48 sec) 
Heartbeat CPU 0 instructions: 20000000 cycles: 5554413 heartbeat IPC: 3.60395 cumulative IPC: 3.60074 (Simulation time: 0 hr 1 min 32 sec) 
Heartbeat CPU 0 instructions: 30000000 cycles: 8355422 heartbeat IPC: 3.57014 cumulative IPC: 3.59048 (Simulation time: 0 hr 2 min 15 sec) 
Heartbeat CPU 0 instructions: 40000001 cycles: 11130984 heartbeat IPC: 3.60287 cumulative IPC: 3.59357 (Simulation time: 0 hr 2 min 57 sec) 
Heartbeat CPU 0 instructions: 50000000 cycles: 13908650 heartbeat IPC: 3.60014 cumulative IPC: 3.59489 (Simulation time: 0 hr 3 min 42 sec) 

Warmup complete CPU 0 instructions: 50000004 cycles: 13908651 (Simulation time: 0 hr 3 min 42 sec) 

Heartbeat CPU 0 instructions: 60000001 cycles: 38033350 heartbeat IPC: 0.414513 cumulative IPC: 0.414513 (Simulation time: 0 hr 4 min 38 sec) 
Heartbeat CPU 0 instructions: 70000000 cycles: 62040215 heartbeat IPC: 0.416547 cumulative IPC: 0.415528 (Simulation time: 0 hr 5 min 37 sec) 
Heartbeat CPU 0 instructions: 80000001 cycles: 87836441 heartbeat IPC: 0.387654 cumulative IPC: 0.405801 (Simulation time: 0 hr 6 min 38 sec) 
Heartbeat CPU 0 instructions: 90000003 cycles: 113523441 heartbeat IPC: 0.389302 cumulative IPC: 0.401547 (Simulation time: 0 hr 7 min 40 sec) 
Heartbeat CPU 0 instructions: 100000003 cycles: 136690188 heartbeat IPC: 0.431653 cumulative IPC: 0.407227 (Simulation time: 0 hr 8 min 42 sec) 
*** Reached end of trace for Core: 0 Repeating trace: traces/spec2k17/server_011.champsimtrace.xz
Heartbeat CPU 0 instructions: 110000000 cycles: 160387908 heartbeat IPC: 0.421981 cumulative IPC: 0.409614 (Simulation time: 0 hr 9 min 50 sec) 
Heartbeat CPU 0 instructions: 120000003 cycles: 184642900 heartbeat IPC: 0.412286 cumulative IPC: 0.409994 (Simulation time: 0 hr 10 min 59 sec) 
Heartbeat CPU 0 instructions: 130000000 cycles: 208937475 heartbeat IPC: 0.411614 cumulative IPC: 0.410196 (Simulation time: 0 hr 12 min 13 sec) 
Heartbeat CPU 0 instructions: 140000002 cycles: 235548101 heartbeat IPC: 0.37579 cumulative IPC: 0.406065 (Simulation time: 0 hr 13 min 44 sec) 
Heartbeat CPU 0 instructions: 150000000 cycles: 259756326 heartbeat IPC: 0.413083 cumulative IPC: 0.406756 (Simulation time: 0 hr 15 min 16 sec) 
Heartbeat CPU 0 instructions: 160000002 cycles: 283624364 heartbeat IPC: 0.41897 cumulative IPC: 0.407837 (Simulation time: 0 hr 16 min 58 sec) 
Heartbeat CPU 0 instructions: 170000000 cycles: 307547719 heartbeat IPC: 0.418002 cumulative IPC: 0.408665 (Simulation time: 0 hr 19 min 3 sec) 
Heartbeat CPU 0 instructions: 180000002 cycles: 334340314 heartbeat IPC: 0.373238 cumulative IPC: 0.405703 (Simulation time: 0 hr 21 min 45 sec) 
Heartbeat CPU 0 instructions: 190000001 cycles: 358839213 heartbeat IPC: 0.408182 cumulative IPC: 0.405879 (Simulation time: 0 hr 24 min 48 sec) 
Heartbeat CPU 0 instructions: 200000002 cycles: 382089231 heartbeat IPC: 0.430107 cumulative IPC: 0.407409 (Simulation time: 0 hr 27 min 14 sec) 
*** Reached end of trace for Core: 0 Repeating trace: traces/spec2k17/server_011.champsimtrace.xz
Heartbeat CPU 0 instructions: 210000003 cycles: 405680744 heartbeat IPC: 0.423881 cumulative IPC: 0.408401 (Simulation time: 0 hr 35 min 50 sec) 
Heartbeat CPU 0 instructions: 220000000 cycles: 430009926 heartbeat IPC: 0.411029 cumulative IPC: 0.408554 (Simulation time: 0 hr 39 min 35 sec) 
Heartbeat CPU 0 instructions: 230000002 cycles: 453879473 heartbeat IPC: 0.418944 cumulative IPC: 0.409118 (Simulation time: 0 hr 42 min 25 sec) 
Heartbeat CPU 0 instructions: 240000001 cycles: 480854594 heartbeat IPC: 0.370712 cumulative IPC: 0.406899 (Simulation time: 0 hr 46 min 11 sec) 
Heartbeat CPU 0 instructions: 250000000 cycles: 504625265 heartbeat IPC: 0.420686 cumulative IPC: 0.407567 (Simulation time: 0 hr 48 min 40 sec) 
Finished CPU 0 instructions: 200000000 cycles: 490716617 cumulative IPC: 0.407567 (Simulation time: 0 hr 48 min 41 sec) 

ChampSim completed all CPUs

Region of Interest Statistics

CPU 0 cumulative IPC: 0.407567 instructions: 200000000 cycles: 490716617
ITLB TOTAL     ACCESS:   32107838  HIT:   31346559  MISS:     761279  HIT %:     97.629  MISS %:    2.37101   MPKI: 3.8064
ITLB LOAD TRANSLATION ACCESS:   32107838  HIT:   31346559  MISS:     761279  HIT %:     97.629  MISS %:    2.37101   MPKI: 3.8064
ITLB PREFETCH  REQUESTED:          0  ISSUED:          0  USEFUL:          0  USELESS:          0
ITLB USEFUL LOAD PREFETCHES:          0 PREFETCH ISSUED TO LOWER LEVEL:          0  ACCURACY: -nan
ITLB TIMELY PREFETCHES:          0 LATE PREFETCHES: 0 DROPPED PREFETCHES: 0
ITLB PREFETCHES SAME FILL-ORIGIN LEVEL: 0 DIFFERENT FILL-ORIGIN LEVEL: 0
ITLB AVERAGE MISS LATENCY: 15.5637 cycles
ITLB RQ	ACCESS:   38679240	FORWARD:          0	MERGED:    6386546	TO_CACHE:   32292694

DTLB TOTAL     ACCESS:   38350379  HIT:   35975536  MISS:    2374843  HIT %:    93.8075  MISS %:    6.19249   MPKI: 11.8742
DTLB LOAD TRANSLATION ACCESS:   38350379  HIT:   35975536  MISS:    2374843  HIT %:    93.8075  MISS %:    6.19249   MPKI: 11.8742
DTLB PREFETCH  REQUESTED:          0  ISSUED:          0  USEFUL:          0  USELESS:          0
DTLB USEFUL LOAD PREFETCHES:          0 PREFETCH ISSUED TO LOWER LEVEL:          0  ACCURACY: -nan
DTLB TIMELY PREFETCHES:          0 LATE PREFETCHES: 0 DROPPED PREFETCHES: 0
DTLB PREFETCHES SAME FILL-ORIGIN LEVEL: 0 DIFFERENT FILL-ORIGIN LEVEL: 0
DTLB AVERAGE MISS LATENCY: 14.0244 cycles
DTLB RQ	ACCESS:   48865034	FORWARD:          0	MERGED:   10376377	TO_CACHE:   38488657

STLB TOTAL     ACCESS:    5345233  HIT:    4918952  MISS:     426281  HIT %:     92.025  MISS %:    7.97498   MPKI: 2.1314
STLB LOAD TRANSLATION ACCESS:    3136122  HIT:    2710631  MISS:     425491  HIT %:    86.4326  MISS %:    13.5674   MPKI: 2.12745
STLB TRANSLATION FROM L1D PREFETCHER ACCESS:    2209111  HIT:    2208321  MISS:        790  HIT %:    99.9642  MISS %:   0.035761   MPKI: 0.00395
STLB PREFETCH  REQUESTED:          0  ISSUED:          0  USEFUL:        723  USELESS:         67
STLB USEFUL LOAD PREFETCHES:        723 PREFETCH ISSUED TO LOWER LEVEL:          0  ACCURACY: inf
STLB TIMELY PREFETCHES:        723 LATE PREFETCHES: 122 DROPPED PREFETCHES: 2413
STLB PREFETCHES SAME FILL-ORIGIN LEVEL: 0 DIFFERENT FILL-ORIGIN LEVEL: 0
STLB AVERAGE MISS LATENCY: 40.4568 cycles
STLB RQ	ACCESS:    5961428	FORWARD:          0	MERGED:     613612	TO_CACHE:    5347816

STLB Hit, L1D data hit: 0
STLB Hit, L2C data hit: 0
STLB Hit, LLC data hit: 0
STLB Hit, LLC data miss: 0
STLB STLB hints to L2: 0
L1D TOTAL     ACCESS:   51097764  HIT:   48588521  MISS:    2509243  HIT %:    95.0893  MISS %:    4.91067   MPKI: 12.5462
L1D LOAD      ACCESS:   29025045  HIT:   26883143  MISS:    2141902  HIT %:    92.6205  MISS %:     7.3795   MPKI: 10.7095
L1D RFO       ACCESS:   19262608  HIT:   18903948  MISS:     358660  HIT %:    98.1381  MISS %:    1.86195   MPKI: 1.7933
L1D PREFETCH  ACCESS:    2810111  HIT:    2801430  MISS:       8681  HIT %:    99.6911  MISS %:    0.30892   MPKI: 0.043405
AGUS PREFETCH L1 MISS: 0
L1D PREFETCH  REQUESTED:    5733374  ISSUED:    5733364  USEFUL:       6895  USELESS:       1785
L1D USEFUL LOAD PREFETCHES:       6895 PREFETCH ISSUED TO LOWER LEVEL:      13455  ACCURACY: 51.2449
L1D TIMELY PREFETCHES:       6895 LATE PREFETCHES: 4690 DROPPED PREFETCHES: 2431
L1D PREFETCHES SAME FILL-ORIGIN LEVEL: 13455 DIFFERENT FILL-ORIGIN LEVEL: 0
L1D AVERAGE MISS LATENCY: 599701 cycles
L1D RQ	ACCESS:   43694224	FORWARD:          0	MERGED:   14317174	TO_CACHE:   29167718
L1D WQ	ACCESS:   19987410	FORWARD:     223239	MERGED:     290094	TO_CACHE:   19697316
L1D PQ	ACCESS:    2908058	FORWARD:          0	MERGED:      68845	TO_CACHE:    2825306

L1D UNIQUE REGIONS ACCESSED: 0
L1D REGIONS CONFLICTS: 0
L1D Cross Page Prefetch Requests: 2566853
L1D Same Page Prefetch Requests: 577887
L1D ROI Sum of L1D PQ occupancy: 39437305
L1D PREFETCHES PUSHED FROM L2C: 0
L1I TOTAL     ACCESS:   37141863  HIT:   32273599  MISS:    4868264  HIT %:    86.8928  MISS %:    13.1072   MPKI: 24.3413
L1I LOAD      ACCESS:   37141863  HIT:   32273599  MISS:    4868264  HIT %:    86.8928  MISS %:    13.1072   MPKI: 24.3413
L1I PREFETCH  REQUESTED:          0  ISSUED:          0  USEFUL:          0  USELESS:          0
L1I USEFUL LOAD PREFETCHES:          0 PREFETCH ISSUED TO LOWER LEVEL:          0  ACCURACY: -nan
L1I TIMELY PREFETCHES:          0 LATE PREFETCHES: 0 DROPPED PREFETCHES: 0
L1I PREFETCHES SAME FILL-ORIGIN LEVEL: 0 DIFFERENT FILL-ORIGIN LEVEL: 0
L1I AVERAGE MISS LATENCY: 28.9293 cycles
L1I RQ	ACCESS:   57586595	FORWARD:          0	MERGED:   18907355	TO_CACHE:   38679240

BTB TOTAL     ACCESS:   23884119  HIT:   18824312  MISS:    5059807  HIT %:    78.8152  MISS %:    21.1848   MPKI: 25.299
BTB BRANCH_DIRECT_JUMP	ACCESS:    1754249  HIT:    1463659  MISS:     290590
BTB BRANCH_INDIRECT	ACCESS:    9786566  HIT:    7419553  MISS:    2367013
BTB BRANCH_CONDITIONAL	ACCESS:    5653971  HIT:    5194175  MISS:     459796
BTB BRANCH_DIRECT_CALL	ACCESS:    2532331  HIT:    1980726  MISS:     551605
BTB BRANCH_INDIRECT_CALL	ACCESS:     808488  HIT:     692902  MISS:     115586
BTB BRANCH_RETURN	ACCESS:    3348514  HIT:    2073297  MISS:    1275217
BTB BRANCH_OTHER ACCESS:          0  HIT:          0  MISS:          0

L2C TOTAL     ACCESS:    8913158  HIT:    5276674  MISS:    3636484  HIT %:    59.2009  MISS %:    40.7991   MPKI: 18.1824
L2C LOAD      ACCESS:    7005409  HIT:    3803443  MISS:    3201966  HIT %:    54.2929  MISS %:    45.7071   MPKI: 16.0098
L2C DATA LOAD MPKI: 5.36219
L2C INSTRUCTION LOAD MPKI: 10.6476
L2C RFO       ACCESS:     358576  HIT:     178677  MISS:     179899  HIT %:    49.8296  MISS %:    50.1704   MPKI: 0.899495
L2C PREFETCH  ACCESS:      13455  HIT:      10650  MISS:       2805  HIT %:    79.1527  MISS %:    20.8473   MPKI: 0.014025
AGUS PREFETCH L1 MISS: 0
L2C DATA PREFETCH MPKI: 0.014025
L2C INSTRUCTION PREFETCH MPKI: 0
L2C WRITEBACK ACCESS:     991656  HIT:     938975  MISS:      52681  HIT %:    94.6876  MISS %:    5.31243   MPKI: 0.263405
L2C LOAD TRANSLATION ACCESS:     539427  HIT:     341654  MISS:     197773  HIT %:    63.3365  MISS %:    36.6635   MPKI: 0.988865
L2C TRANSLATION FROM L1D PREFETCHER ACCESS:       4635  HIT:       3275  MISS:       1360  HIT %:     70.658  MISS %:     29.342   MPKI: 0.0068
L2C PREFETCH  REQUESTED:          0  ISSUED:          0  USEFUL:       1941  USELESS:       2222
L2C USEFUL LOAD PREFETCHES:       1941 PREFETCH ISSUED TO LOWER LEVEL:       2805  ACCURACY: 69.1979
L2C TIMELY PREFETCHES:       1941 LATE PREFETCHES: 0 DROPPED PREFETCHES: 0
L2C PREFETCHES SAME FILL-ORIGIN LEVEL: 0 DIFFERENT FILL-ORIGIN LEVEL: 0
L2C AVERAGE MISS LATENCY: 43.4563 cycles
L2C RQ	ACCESS:    7908114	FORWARD:          0	MERGED:          0	TO_CACHE:    7908047
L2C WQ	ACCESS:     991656	FORWARD:         67	MERGED:          0	TO_CACHE:     991656
L2C PQ	ACCESS:      13455	FORWARD:          0	MERGED:          0	TO_CACHE:      13455

L2C Instructions Evicting Data 760191
L2C Translations Evicting Data 75750
L2C Data Evicting Data 452646
L2C Instructions Evicting Instructions 1256601
L2C Translations Evicting Instructions 113392
L2C Data Evicting Instructions 728871
L2C Instructions Evicting Translations 112737
L2C Translations Evicting Translations 9991
L2C Data Evicting Translations 73624
L2C Dense regions hint from L2: 0
PSCL5 TOTAL     ACCESS:     428574  HIT:     428574  MISS:          0  HIT %:        100  MISS %:          0   MPKI: 0
PSCL5 LOAD TRANSLATION ACCESS:     425369  HIT:     425369  MISS:          0  HIT %:        100  MISS %:          0   MPKI: 0
PSCL5 TRANSLATION FROM L1D PREFETCHER ACCESS:       3205  HIT:       3205  MISS:          0  HIT %:        100  MISS %:          0   MPKI: 0
PSCL5 PREFETCH  REQUESTED:          0  ISSUED:          0  USEFUL:          0  USELESS:          0
PSCL5 USEFUL LOAD PREFETCHES:          0 PREFETCH ISSUED TO LOWER LEVEL:          0  ACCURACY: -nan
PSCL5 TIMELY PREFETCHES:          0 LATE PREFETCHES: 0 DROPPED PREFETCHES: 0
PSCL5 PREFETCHES SAME FILL-ORIGIN LEVEL: 0 DIFFERENT FILL-ORIGIN LEVEL: 0

PSCL4 TOTAL     ACCESS:     410412  HIT:     409095  MISS:       1317  HIT %:    99.6791  MISS %:   0.320897   MPKI: 0.006585
PSCL4 LOAD TRANSLATION ACCESS:     407514  HIT:     406197  MISS:       1317  HIT %:    99.6768  MISS %:   0.323179   MPKI: 0.006585
PSCL4 TRANSLATION FROM L1D PREFETCHER ACCESS:       2898  HIT:       2898  MISS:          0  HIT %:        100  MISS %:          0   MPKI: 0
PSCL4 PREFETCH  REQUESTED:          0  ISSUED:          0  USEFUL:          0  USELESS:          0
PSCL4 USEFUL LOAD PREFETCHES:          0 PREFETCH ISSUED TO LOWER LEVEL:          0  ACCURACY: -nan
PSCL4 TIMELY PREFETCHES:          0 LATE PREFETCHES: 0 DROPPED PREFETCHES: 0
PSCL4 PREFETCHES SAME FILL-ORIGIN LEVEL: 0 DIFFERENT FILL-ORIGIN LEVEL: 0

PSCL3 TOTAL     ACCESS:     425041  HIT:     421580  MISS:       3461  HIT %:    99.1857  MISS %:   0.814274   MPKI: 0.017305
PSCL3 LOAD TRANSLATION ACCESS:     421940  HIT:     418479  MISS:       3461  HIT %:    99.1797  MISS %:   0.820259   MPKI: 0.017305
PSCL3 TRANSLATION FROM L1D PREFETCHER ACCESS:       3101  HIT:       3101  MISS:          0  HIT %:        100  MISS %:          0   MPKI: 0
PSCL3 PREFETCH  REQUESTED:          0  ISSUED:          0  USEFUL:          0  USELESS:          0
PSCL3 USEFUL LOAD PREFETCHES:          0 PREFETCH ISSUED TO LOWER LEVEL:          0  ACCURACY: -nan
PSCL3 TIMELY PREFETCHES:          0 LATE PREFETCHES: 0 DROPPED PREFETCHES: 0
PSCL3 PREFETCHES SAME FILL-ORIGIN LEVEL: 0 DIFFERENT FILL-ORIGIN LEVEL: 0

PSCL2 TOTAL     ACCESS:     426338  HIT:     316403  MISS:     109935  HIT %:    74.2141  MISS %:    25.7859   MPKI: 0.549675
PSCL2 LOAD TRANSLATION ACCESS:     425983  HIT:     316048  MISS:     109935  HIT %:    74.1926  MISS %:    25.8074   MPKI: 0.549675
PSCL2 TRANSLATION FROM L1D PREFETCHER ACCESS:        355  HIT:        355  MISS:          0  HIT %:        100  MISS %:          0   MPKI: 0
PSCL2 PREFETCH  REQUESTED:          0  ISSUED:          0  USEFUL:          0  USELESS:          0
PSCL2 USEFUL LOAD PREFETCHES:          0 PREFETCH ISSUED TO LOWER LEVEL:          0  ACCURACY: -nan
PSCL2 TIMELY PREFETCHES:          0 LATE PREFETCHES: 0 DROPPED PREFETCHES: 0
PSCL2 PREFETCHES SAME FILL-ORIGIN LEVEL: 0 DIFFERENT FILL-ORIGIN LEVEL: 0

LLC TOTAL     ACCESS:    4049997  HIT:    3719849  MISS:     330148  HIT %:    91.8482  MISS %:    8.15181   MPKI: 1.65074
LLC LOAD      ACCESS:    3201964  HIT:    2945318  MISS:     256646  HIT %:    91.9847  MISS %:    8.01527   MPKI: 1.28323
LLC RFO       ACCESS:     179899  HIT:     117861  MISS:      62038  HIT %:    65.5151  MISS %:    34.4849   MPKI: 0.31019
LLC PREFETCH  ACCESS:       2803  HIT:       2714  MISS:         89  HIT %:    96.8248  MISS %:    3.17517   MPKI: 0.000445
AGUS PREFETCH L1 MISS: 0
LLC WRITEBACK ACCESS:     466198  HIT:     461069  MISS:       5129  HIT %:    98.8998  MISS %:    1.10018   MPKI: 0.025645
LLC LOAD TRANSLATION ACCESS:     197773  HIT:     191615  MISS:       6158  HIT %:    96.8863  MISS %:    3.11367   MPKI: 0.03079
LLC TRANSLATION FROM L1D PREFETCHER ACCESS:       1360  HIT:       1272  MISS:         88  HIT %:    93.5294  MISS %:    6.47059   MPKI: 0.00044
LLC PREFETCH  REQUESTED:          0  ISSUED:          0  USEFUL:         49  USELESS:        117
LLC USEFUL LOAD PREFETCHES:         49 PREFETCH ISSUED TO LOWER LEVEL:         89  ACCURACY: 55.0562
LLC TIMELY PREFETCHES:         49 LATE PREFETCHES: 0 DROPPED PREFETCHES: 0
LLC PREFETCHES SAME FILL-ORIGIN LEVEL: 0 DIFFERENT FILL-ORIGIN LEVEL: 0
LLC AVERAGE MISS LATENCY: 152.902 cycles
LLC RQ	ACCESS:    3580998	FORWARD:          0	MERGED:          0	TO_CACHE:    3580996
LLC WQ	ACCESS:     466198	FORWARD:          4	MERGED:          0	TO_CACHE:     466198
LLC PQ	ACCESS:       2805	FORWARD:          0	MERGED:          0	TO_CACHE:       2803

LLC Dense regions hint to LLC: 0

RAW hits: 2676939
Loads Generated: 46371163
Loads sent to L1D: 43694224
Stores Generated: 19987388
Stores sent to L1D: 19987410
Major fault: 0 Minor fault: 7361
Allocated PAGES: 7361
Completed 
Accuracy : 86.4387
Number of unique groups: 5348088

DRAM Statistics
 CHANNEL 0
 RQ ROW_BUFFER_HIT:      59656  ROW_BUFFER_MISS:     265363
 DBUS_CONGESTED:        125
 WQ ROW_BUFFER_HIT:      34159  ROW_BUFFER_MISS:     184968  FULL:          0

 AVG_CONGESTED_CYCLE: 4
 All warmup complete: 2
Channel 0 Bank busy for read cycles: 0
Channel 0 Bank busy for write cycles: 0
Channel 0
Rank 0
0banks busy for read cycles: 428837786
0banks busy for write cycles: 128101
1banks busy for read cycles: 31130212
1banks busy for write cycles: 18550987
2banks busy for read cycles: 3916696
2banks busy for write cycles: 4372900
3banks busy for read cycles: 478876
3banks busy for write cycles: 1376065
4banks busy for read cycles: 212108
4banks busy for write cycles: 564773
5banks busy for read cycles: 81412
5banks busy for write cycles: 291115
6banks busy for read cycles: 45666
6banks busy for write cycles: 178619
7banks busy for read cycles: 37318
7banks busy for write cycles: 177112
8banks busy for read cycles: 76166
8banks busy for write cycles: 260706

CPU 0 Branch Prediction Accuracy: 98.8611% MPKI: 2.07212 Average ROB Occupancy at Mispredict: 13.6625
Branch types
NOT_BRANCH: 163610883 81.8054%
BRANCH_DIRECT_JUMP: 1754249 0.877124%
BRANCH_INDIRECT: 9786566 4.89328%
BRANCH_CONDITIONAL: 18158639 9.07932%
BRANCH_DIRECT_CALL: 2532331 1.26617%
BRANCH_INDIRECT_CALL: 808488 0.404244%
BRANCH_RETURN: 3348514 1.67426%
BRANCH_OTHER: 0 0%

DRAM PAGES: 1048576
Allocated PAGES: 7361
