
*** ChampSim Multicore Out-of-Order Simulator ***

Warmup Instructions: 50000000
Simulation Instructions: 200000000
Number of CPUs: 1
LLC sets: 2048
LLC ways: 16
Off-chip DRAM Size: 4096 MB Channels: 1 Width: 64-bit Data Rate: 6400 MT/s
CPU 0 runs traces/spec2k17/server_038.champsimtrace.xz
.xz
BTB has LRU replacement policy
ITLB has LRU replacement policy
DTLB has LRU replacement policy
STLB has LRU replacement policy
L1I has LRU replacement policy
L1D has LRU replacement policy
Initialize SRRIP state for L2C
Initialize DRRIP state for LLC
Heartbeat CPU 0 instructions: 10000000 cycles: 2788814 heartbeat IPC: 3.58575 cumulative IPC: 3.58575 (Simulation time: 0 hr 0 min 44 sec) 
Heartbeat CPU 0 instructions: 20000002 cycles: 5579805 heartbeat IPC: 3.58296 cumulative IPC: 3.58436 (Simulation time: 0 hr 1 min 24 sec) 
Heartbeat CPU 0 instructions: 30000003 cycles: 8370820 heartbeat IPC: 3.58293 cumulative IPC: 3.58388 (Simulation time: 0 hr 2 min 2 sec) 
Heartbeat CPU 0 instructions: 40000001 cycles: 11163289 heartbeat IPC: 3.58106 cumulative IPC: 3.58317 (Simulation time: 0 hr 2 min 42 sec) 
Heartbeat CPU 0 instructions: 50000001 cycles: 13956806 heartbeat IPC: 3.57972 cumulative IPC: 3.58248 (Simulation time: 0 hr 3 min 20 sec) 

Warmup complete CPU 0 instructions: 50000001 cycles: 13956806 (Simulation time: 0 hr 3 min 20 sec) 

Heartbeat CPU 0 instructions: 60000000 cycles: 34117275 heartbeat IPC: 0.49602 cumulative IPC: 0.49602 (Simulation time: 0 hr 4 min 18 sec) 
Heartbeat CPU 0 instructions: 70000000 cycles: 54086857 heartbeat IPC: 0.500762 cumulative IPC: 0.49838 (Simulation time: 0 hr 5 min 14 sec) 
Heartbeat CPU 0 instructions: 80000000 cycles: 74050270 heartbeat IPC: 0.500916 cumulative IPC: 0.499222 (Simulation time: 0 hr 6 min 15 sec) 
Heartbeat CPU 0 instructions: 90000001 cycles: 94038098 heartbeat IPC: 0.500305 cumulative IPC: 0.499492 (Simulation time: 0 hr 7 min 17 sec) 
Heartbeat CPU 0 instructions: 100000002 cycles: 114020821 heartbeat IPC: 0.500432 cumulative IPC: 0.49968 (Simulation time: 0 hr 8 min 19 sec) 
*** Reached end of trace for Core: 0 Repeating trace: traces/spec2k17/server_038.champsimtrace.xz
Heartbeat CPU 0 instructions: 110000000 cycles: 134113453 heartbeat IPC: 0.497695 cumulative IPC: 0.499348 (Simulation time: 0 hr 9 min 20 sec) 
Heartbeat CPU 0 instructions: 120000003 cycles: 154150690 heartbeat IPC: 0.499071 cumulative IPC: 0.499309 (Simulation time: 0 hr 10 min 19 sec) 
Heartbeat CPU 0 instructions: 130000001 cycles: 174116966 heartbeat IPC: 0.500844 cumulative IPC: 0.4995 (Simulation time: 0 hr 11 min 21 sec) 
Heartbeat CPU 0 instructions: 140000001 cycles: 194090348 heartbeat IPC: 0.500666 cumulative IPC: 0.499629 (Simulation time: 0 hr 12 min 25 sec) 
Heartbeat CPU 0 instructions: 150000002 cycles: 214064244 heartbeat IPC: 0.500654 cumulative IPC: 0.499732 (Simulation time: 0 hr 13 min 35 sec) 
Heartbeat CPU 0 instructions: 160000000 cycles: 234085952 heartbeat IPC: 0.499458 cumulative IPC: 0.499707 (Simulation time: 0 hr 14 min 51 sec) 
Heartbeat CPU 0 instructions: 170000002 cycles: 254011462 heartbeat IPC: 0.501869 cumulative IPC: 0.499886 (Simulation time: 0 hr 16 min 11 sec) 
Heartbeat CPU 0 instructions: 180000000 cycles: 273927701 heartbeat IPC: 0.502103 cumulative IPC: 0.500056 (Simulation time: 0 hr 17 min 36 sec) 
Heartbeat CPU 0 instructions: 190000002 cycles: 293847560 heartbeat IPC: 0.502012 cumulative IPC: 0.500195 (Simulation time: 0 hr 19 min 4 sec) 
Heartbeat CPU 0 instructions: 200000001 cycles: 313774231 heartbeat IPC: 0.50184 cumulative IPC: 0.500304 (Simulation time: 0 hr 20 min 39 sec) 
*** Reached end of trace for Core: 0 Repeating trace: traces/spec2k17/server_038.champsimtrace.xz
Heartbeat CPU 0 instructions: 210000003 cycles: 333822797 heartbeat IPC: 0.498789 cumulative IPC: 0.50021 (Simulation time: 0 hr 22 min 23 sec) 
Heartbeat CPU 0 instructions: 220000000 cycles: 353859529 heartbeat IPC: 0.499083 cumulative IPC: 0.500143 (Simulation time: 0 hr 24 min 15 sec) 
Heartbeat CPU 0 instructions: 230000003 cycles: 373786480 heartbeat IPC: 0.501833 cumulative IPC: 0.500237 (Simulation time: 0 hr 26 min 10 sec) 
Heartbeat CPU 0 instructions: 240000001 cycles: 393783772 heartbeat IPC: 0.500068 cumulative IPC: 0.500228 (Simulation time: 0 hr 28 min 23 sec) 
Heartbeat CPU 0 instructions: 250000001 cycles: 413758011 heartbeat IPC: 0.500645 cumulative IPC: 0.500249 (Simulation time: 0 hr 31 min 14 sec) 
Finished CPU 0 instructions: 200000000 cycles: 399801205 cumulative IPC: 0.500249 (Simulation time: 0 hr 31 min 14 sec) 

ChampSim completed all CPUs

Region of Interest Statistics

CPU 0 cumulative IPC: 0.500249 instructions: 200000000 cycles: 399801205
ITLB TOTAL     ACCESS:   35174656  HIT:   32681945  MISS:    2492711  HIT %:    92.9133  MISS %:    7.08667   MPKI: 12.4636
ITLB LOAD TRANSLATION ACCESS:   35174656  HIT:   32681945  MISS:    2492711  HIT %:    92.9133  MISS %:    7.08667   MPKI: 12.4636
ITLB PREFETCH  REQUESTED:          0  ISSUED:          0  USEFUL:          0  USELESS:          0
ITLB USEFUL LOAD PREFETCHES:          0 PREFETCH ISSUED TO LOWER LEVEL:          0  ACCURACY: -nan
ITLB TIMELY PREFETCHES:          0 LATE PREFETCHES: 0 DROPPED PREFETCHES: 0
ITLB PREFETCHES SAME FILL-ORIGIN LEVEL: 0 DIFFERENT FILL-ORIGIN LEVEL: 0
ITLB AVERAGE MISS LATENCY: 9.01538 cycles
ITLB RQ	ACCESS:   41437490	FORWARD:          0	MERGED:    5451625	TO_CACHE:   35985865

DTLB TOTAL     ACCESS:   40157864  HIT:   38161546  MISS:    1996318  HIT %:    95.0288  MISS %:    4.97118   MPKI: 9.98159
DTLB LOAD TRANSLATION ACCESS:   40157864  HIT:   38161546  MISS:    1996318  HIT %:    95.0288  MISS %:    4.97118   MPKI: 9.98159
DTLB PREFETCH  REQUESTED:          0  ISSUED:          0  USEFUL:          0  USELESS:          0
DTLB USEFUL LOAD PREFETCHES:          0 PREFETCH ISSUED TO LOWER LEVEL:          0  ACCURACY: -nan
DTLB TIMELY PREFETCHES:          0 LATE PREFETCHES: 0 DROPPED PREFETCHES: 0
DTLB PREFETCHES SAME FILL-ORIGIN LEVEL: 0 DIFFERENT FILL-ORIGIN LEVEL: 0
DTLB AVERAGE MISS LATENCY: 9.40771 cycles
DTLB RQ	ACCESS:   55979206	FORWARD:          0	MERGED:   15674589	TO_CACHE:   40304617

STLB TOTAL     ACCESS:    7958748  HIT:    7935773  MISS:      22975  HIT %:    99.7113  MISS %:   0.288676   MPKI: 0.114875
STLB LOAD TRANSLATION ACCESS:    4489029  HIT:    4466186  MISS:      22843  HIT %:    99.4911  MISS %:   0.508863   MPKI: 0.114215
STLB TRANSLATION FROM L1D PREFETCHER ACCESS:    3469719  HIT:    3469587  MISS:        132  HIT %:    99.9962  MISS %: 0.00380434   MPKI: 0.00066
STLB PREFETCH  REQUESTED:          0  ISSUED:          0  USEFUL:        100  USELESS:         30
STLB USEFUL LOAD PREFETCHES:        100 PREFETCH ISSUED TO LOWER LEVEL:          0  ACCURACY: inf
STLB TIMELY PREFETCHES:        100 LATE PREFETCHES: 0 DROPPED PREFETCHES: 6298
STLB PREFETCHES SAME FILL-ORIGIN LEVEL: 0 DIFFERENT FILL-ORIGIN LEVEL: 0
STLB AVERAGE MISS LATENCY: 56.5265 cycles
STLB RQ	ACCESS:    9348626	FORWARD:          0	MERGED:    1383580	TO_CACHE:    7965046

STLB Hit, L1D data hit: 0
STLB Hit, L2C data hit: 0
STLB Hit, LLC data hit: 0
STLB Hit, LLC data miss: 0
STLB STLB hints to L2: 0
L1D TOTAL     ACCESS:   60362169  HIT:   58667437  MISS:    1694732  HIT %:    97.1924  MISS %:    2.80761   MPKI: 8.47366
L1D LOAD      ACCESS:   31365372  HIT:   29959033  MISS:    1406339  HIT %:    95.5163  MISS %:    4.48373   MPKI: 7.0317
L1D RFO       ACCESS:   24211080  HIT:   23959377  MISS:     251703  HIT %:    98.9604  MISS %:    1.03962   MPKI: 1.25852
L1D PREFETCH  ACCESS:    4785717  HIT:    4749027  MISS:      36690  HIT %:    99.2333  MISS %:   0.766656   MPKI: 0.18345
AGUS PREFETCH L1 MISS: 0
L1D PREFETCH  REQUESTED:   10078670  ISSUED:   10078670  USEFUL:      32308  USELESS:       4381
L1D USEFUL LOAD PREFETCHES:      32308 PREFETCH ISSUED TO LOWER LEVEL:      64045  ACCURACY: 50.4458
L1D TIMELY PREFETCHES:      32308 LATE PREFETCHES: 27322 DROPPED PREFETCHES: 6718
L1D PREFETCHES SAME FILL-ORIGIN LEVEL: 64045 DIFFERENT FILL-ORIGIN LEVEL: 0
L1D AVERAGE MISS LATENCY: 3.84191e+06 cycles
L1D RQ	ACCESS:   46007972	FORWARD:          0	MERGED:   14287087	TO_CACHE:   31469640
L1D WQ	ACCESS:   24697059	FORWARD:     284136	MERGED:     187493	TO_CACHE:   24509566
L1D PQ	ACCESS:    5219073	FORWARD:          0	MERGED:     326585	TO_CACHE:    4859597

L1D UNIQUE REGIONS ACCESSED: 0
L1D REGIONS CONFLICTS: 0
L1D Cross Page Prefetch Requests: 3681396
L1D Same Page Prefetch Requests: 1864575
L1D ROI Sum of L1D PQ occupancy: 66780698
L1D PREFETCHES PUSHED FROM L2C: 0
L1I TOTAL     ACCESS:   37494782  HIT:   22056290  MISS:   15438492  HIT %:     58.825  MISS %:     41.175   MPKI: 77.1925
L1I LOAD      ACCESS:   37494782  HIT:   22056290  MISS:   15438492  HIT %:     58.825  MISS %:     41.175   MPKI: 77.1925
L1I PREFETCH  REQUESTED:          0  ISSUED:          0  USEFUL:          0  USELESS:          0
L1I USEFUL LOAD PREFETCHES:          0 PREFETCH ISSUED TO LOWER LEVEL:          0  ACCURACY: -nan
L1I TIMELY PREFETCHES:          0 LATE PREFETCHES: 0 DROPPED PREFETCHES: 0
L1I PREFETCHES SAME FILL-ORIGIN LEVEL: 0 DIFFERENT FILL-ORIGIN LEVEL: 0
L1I AVERAGE MISS LATENCY: 14.1233 cycles
L1I RQ	ACCESS:   62467846	FORWARD:          0	MERGED:   21030356	TO_CACHE:   41437490

BTB TOTAL     ACCESS:   28064304  HIT:   24482603  MISS:    3581701  HIT %:    87.2375  MISS %:    12.7625   MPKI: 17.9085
BTB BRANCH_DIRECT_JUMP	ACCESS:    2068715  HIT:    1958904  MISS:     109811
BTB BRANCH_INDIRECT	ACCESS:   12589489  HIT:   11340070  MISS:    1249419
BTB BRANCH_CONDITIONAL	ACCESS:    3946651  HIT:    3830860  MISS:     115791
BTB BRANCH_DIRECT_CALL	ACCESS:    3834256  HIT:    3580645  MISS:     253611
BTB BRANCH_INDIRECT_CALL	ACCESS:     895479  HIT:     719752  MISS:     175727
BTB BRANCH_RETURN	ACCESS:    4729714  HIT:    3052372  MISS:    1677342
BTB BRANCH_OTHER ACCESS:          0  HIT:          0  MISS:          0

L2C TOTAL     ACCESS:   18069668  HIT:   17518401  MISS:     551267  HIT %:    96.9492  MISS %:    3.05079   MPKI: 2.75633
L2C LOAD      ACCESS:   16817489  HIT:   16399348  MISS:     418141  HIT %:    97.5137  MISS %:    2.48635   MPKI: 2.0907
L2C DATA LOAD MPKI: 1.98462
L2C INSTRUCTION LOAD MPKI: 0.10609
L2C RFO       ACCESS:     251670  HIT:     155045  MISS:      96625  HIT %:    61.6065  MISS %:    38.3935   MPKI: 0.483125
L2C PREFETCH  ACCESS:      64045  HIT:      61655  MISS:       2390  HIT %:    96.2682  MISS %:    3.73175   MPKI: 0.01195
AGUS PREFETCH L1 MISS: 0
L2C DATA PREFETCH MPKI: 0.01195
L2C INSTRUCTION PREFETCH MPKI: 0
L2C WRITEBACK ACCESS:     895500  HIT:     880869  MISS:      14631  HIT %:    98.3662  MISS %:    1.63384   MPKI: 0.073155
L2C LOAD TRANSLATION ACCESS:      31504  HIT:      12939  MISS:      18565  HIT %:     41.071  MISS %:     58.929   MPKI: 0.092825
L2C TRANSLATION FROM L1D PREFETCHER ACCESS:       9460  HIT:       8545  MISS:        915  HIT %:    90.3277  MISS %:     9.6723   MPKI: 0.004575
L2C PREFETCH  REQUESTED:          0  ISSUED:          0  USEFUL:        793  USELESS:       2497
L2C USEFUL LOAD PREFETCHES:        793 PREFETCH ISSUED TO LOWER LEVEL:       2390  ACCURACY: 33.1799
L2C TIMELY PREFETCHES:        793 LATE PREFETCHES: 0 DROPPED PREFETCHES: 0
L2C PREFETCHES SAME FILL-ORIGIN LEVEL: 0 DIFFERENT FILL-ORIGIN LEVEL: 0
L2C AVERAGE MISS LATENCY: 51.0649 cycles
L2C RQ	ACCESS:   17110143	FORWARD:          0	MERGED:          0	TO_CACHE:   17110123
L2C WQ	ACCESS:     895500	FORWARD:         20	MERGED:          0	TO_CACHE:     895500
L2C PQ	ACCESS:      64045	FORWARD:          0	MERGED:          0	TO_CACHE:      64045

L2C Instructions Evicting Data 19042
L2C Translations Evicting Data 17920
L2C Data Evicting Data 459989
L2C Instructions Evicting Instructions 1314
L2C Translations Evicting Instructions 833
L2C Data Evicting Instructions 18360
L2C Instructions Evicting Translations 862
L2C Translations Evicting Translations 727
L2C Data Evicting Translations 17589
L2C Dense regions hint from L2: 0
PSCL5 TOTAL     ACCESS:      29211  HIT:      29211  MISS:          0  HIT %:        100  MISS %:          0   MPKI: 0
PSCL5 LOAD TRANSLATION ACCESS:      22843  HIT:      22843  MISS:          0  HIT %:        100  MISS %:          0   MPKI: 0
PSCL5 TRANSLATION FROM L1D PREFETCHER ACCESS:       6368  HIT:       6368  MISS:          0  HIT %:        100  MISS %:          0   MPKI: 0
PSCL5 PREFETCH  REQUESTED:          0  ISSUED:          0  USEFUL:          0  USELESS:          0
PSCL5 USEFUL LOAD PREFETCHES:          0 PREFETCH ISSUED TO LOWER LEVEL:          0  ACCURACY: -nan
PSCL5 TIMELY PREFETCHES:          0 LATE PREFETCHES: 0 DROPPED PREFETCHES: 0
PSCL5 PREFETCHES SAME FILL-ORIGIN LEVEL: 0 DIFFERENT FILL-ORIGIN LEVEL: 0

PSCL4 TOTAL     ACCESS:      28314  HIT:      28304  MISS:         10  HIT %:    99.9647  MISS %:  0.0353182   MPKI: 5e-05
PSCL4 LOAD TRANSLATION ACCESS:      22244  HIT:      22234  MISS:         10  HIT %:     99.955  MISS %:  0.0449559   MPKI: 5e-05
PSCL4 TRANSLATION FROM L1D PREFETCHER ACCESS:       6070  HIT:       6070  MISS:          0  HIT %:        100  MISS %:          0   MPKI: 0
PSCL4 PREFETCH  REQUESTED:          0  ISSUED:          0  USEFUL:          0  USELESS:          0
PSCL4 USEFUL LOAD PREFETCHES:          0 PREFETCH ISSUED TO LOWER LEVEL:          0  ACCURACY: -nan
PSCL4 TIMELY PREFETCHES:          0 LATE PREFETCHES: 0 DROPPED PREFETCHES: 0
PSCL4 PREFETCHES SAME FILL-ORIGIN LEVEL: 0 DIFFERENT FILL-ORIGIN LEVEL: 0

PSCL3 TOTAL     ACCESS:      28363  HIT:      28294  MISS:         69  HIT %:    99.7567  MISS %:   0.243275   MPKI: 0.000345
PSCL3 LOAD TRANSLATION ACCESS:      22782  HIT:      22713  MISS:         69  HIT %:    99.6971  MISS %:   0.302871   MPKI: 0.000345
PSCL3 TRANSLATION FROM L1D PREFETCHER ACCESS:       5581  HIT:       5581  MISS:          0  HIT %:        100  MISS %:          0   MPKI: 0
PSCL3 PREFETCH  REQUESTED:          0  ISSUED:          0  USEFUL:          0  USELESS:          0
PSCL3 USEFUL LOAD PREFETCHES:          0 PREFETCH ISSUED TO LOWER LEVEL:          0  ACCURACY: -nan
PSCL3 TIMELY PREFETCHES:          0 LATE PREFETCHES: 0 DROPPED PREFETCHES: 0
PSCL3 PREFETCHES SAME FILL-ORIGIN LEVEL: 0 DIFFERENT FILL-ORIGIN LEVEL: 0

PSCL2 TOTAL     ACCESS:      23361  HIT:      14716  MISS:       8645  HIT %:    62.9939  MISS %:    37.0061   MPKI: 0.043225
PSCL2 LOAD TRANSLATION ACCESS:      22883  HIT:      14238  MISS:       8645  HIT %:    62.2209  MISS %:    37.7791   MPKI: 0.043225
PSCL2 TRANSLATION FROM L1D PREFETCHER ACCESS:        478  HIT:        478  MISS:          0  HIT %:        100  MISS %:          0   MPKI: 0
PSCL2 PREFETCH  REQUESTED:          0  ISSUED:          0  USEFUL:          0  USELESS:          0
PSCL2 USEFUL LOAD PREFETCHES:          0 PREFETCH ISSUED TO LOWER LEVEL:          0  ACCURACY: -nan
PSCL2 TIMELY PREFETCHES:          0 LATE PREFETCHES: 0 DROPPED PREFETCHES: 0
PSCL2 PREFETCHES SAME FILL-ORIGIN LEVEL: 0 DIFFERENT FILL-ORIGIN LEVEL: 0

LLC TOTAL     ACCESS:     797632  HIT:     720395  MISS:      77237  HIT %:    90.3167  MISS %:    9.68329   MPKI: 0.386185
LLC LOAD      ACCESS:     418140  HIT:     360945  MISS:      57195  HIT %:    86.3216  MISS %:    13.6784   MPKI: 0.285975
LLC RFO       ACCESS:      96621  HIT:      77612  MISS:      19009  HIT %:    80.3262  MISS %:    19.6738   MPKI: 0.095045
LLC PREFETCH  ACCESS:       2390  HIT:       2347  MISS:         43  HIT %:    98.2008  MISS %:    1.79916   MPKI: 0.000215
AGUS PREFETCH L1 MISS: 0
LLC WRITEBACK ACCESS:     261001  HIT:     260474  MISS:        527  HIT %:    99.7981  MISS %:   0.201915   MPKI: 0.002635
LLC LOAD TRANSLATION ACCESS:      18565  HIT:      18153  MISS:        412  HIT %:    97.7808  MISS %:    2.21923   MPKI: 0.00206
LLC TRANSLATION FROM L1D PREFETCHER ACCESS:        915  HIT:        864  MISS:         51  HIT %:    94.4262  MISS %:    5.57377   MPKI: 0.000255
LLC PREFETCH  REQUESTED:          0  ISSUED:          0  USEFUL:         33  USELESS:         51
LLC USEFUL LOAD PREFETCHES:         33 PREFETCH ISSUED TO LOWER LEVEL:         43  ACCURACY: 76.7442
LLC TIMELY PREFETCHES:         33 LATE PREFETCHES: 0 DROPPED PREFETCHES: 0
LLC PREFETCHES SAME FILL-ORIGIN LEVEL: 0 DIFFERENT FILL-ORIGIN LEVEL: 0
LLC AVERAGE MISS LATENCY: 155.944 cycles
LLC RQ	ACCESS:     534246	FORWARD:          0	MERGED:          0	TO_CACHE:     534241
LLC WQ	ACCESS:     261001	FORWARD:          5	MERGED:          0	TO_CACHE:     261001
LLC PQ	ACCESS:       2390	FORWARD:          0	MERGED:          0	TO_CACHE:       2390

LLC Dense regions hint to LLC: 0

RAW hits: 2091782
Loads Generated: 48099756
Loads sent to L1D: 46007972
Stores Generated: 24697058
Stores sent to L1D: 24697059
Major fault: 0 Minor fault: 5748
Allocated PAGES: 5748
Completed 
Accuracy : 92.6864
Number of unique groups: 3763499

DRAM Statistics
 CHANNEL 0
 RQ ROW_BUFFER_HIT:      19124  ROW_BUFFER_MISS:      57582
 DBUS_CONGESTED:         10
 WQ ROW_BUFFER_HIT:       3664  ROW_BUFFER_MISS:      26801  FULL:          0

 AVG_CONGESTED_CYCLE: 5
 All warmup complete: 2
Channel 0 Bank busy for read cycles: 0
Channel 0 Bank busy for write cycles: 0
Channel 0
Rank 0
0banks busy for read cycles: 387824086
0banks busy for write cycles: 20978
1banks busy for read cycles: 7000134
1banks busy for write cycles: 3230795
2banks busy for read cycles: 766208
2banks busy for write cycles: 595747
3banks busy for read cycles: 27965
3banks busy for write cycles: 61726
4banks busy for read cycles: 28812
4banks busy for write cycles: 58543
5banks busy for read cycles: 30882
5banks busy for write cycles: 19630
6banks busy for read cycles: 33686
6banks busy for write cycles: 11924
7banks busy for read cycles: 33550
7banks busy for write cycles: 13242
8banks busy for read cycles: 35206
8banks busy for write cycles: 8092

CPU 0 Branch Prediction Accuracy: 99.9778% MPKI: 0.038155 Average ROB Occupancy at Mispredict: 24.2976
Branch types
NOT_BRANCH: 165656550 82.8283%
BRANCH_DIRECT_JUMP: 2068715 1.03436%
BRANCH_INDIRECT: 12589489 6.29474%
BRANCH_CONDITIONAL: 10225817 5.11291%
BRANCH_DIRECT_CALL: 3834256 1.91713%
BRANCH_INDIRECT_CALL: 895479 0.44774%
BRANCH_RETURN: 4729714 2.36486%
BRANCH_OTHER: 0 0%

DRAM PAGES: 1048576
Allocated PAGES: 5748
