
*** ChampSim Multicore Out-of-Order Simulator ***

Warmup Instructions: 50000000
Simulation Instructions: 200000000
Number of CPUs: 1
LLC sets: 2048
LLC ways: 16
Off-chip DRAM Size: 4096 MB Channels: 1 Width: 64-bit Data Rate: 6400 MT/s
CPU 0 runs traces/spec2k17/server_027.champsimtrace.xz
.xz
BTB has LRU replacement policy
ITLB has LRU replacement policy
DTLB has LRU replacement policy
STLB has LRU replacement policy
L1I has LRU replacement policy
L1D has LRU replacement policy
Initialize SRRIP state for L2C
Initialize DRRIP state for LLC
Heartbeat CPU 0 instructions: 10000000 cycles: 2817530 heartbeat IPC: 3.54921 cumulative IPC: 3.54921 (Simulation time: 0 hr 0 min 41 sec) 
Heartbeat CPU 0 instructions: 20000003 cycles: 5632590 heartbeat IPC: 3.55232 cumulative IPC: 3.55077 (Simulation time: 0 hr 1 min 21 sec) 
Heartbeat CPU 0 instructions: 30000001 cycles: 8444170 heartbeat IPC: 3.55672 cumulative IPC: 3.55275 (Simulation time: 0 hr 2 min 9 sec) 
Heartbeat CPU 0 instructions: 40000002 cycles: 11255666 heartbeat IPC: 3.55683 cumulative IPC: 3.55377 (Simulation time: 0 hr 2 min 56 sec) 
Heartbeat CPU 0 instructions: 50000002 cycles: 14067228 heartbeat IPC: 3.55674 cumulative IPC: 3.55436 (Simulation time: 0 hr 3 min 42 sec) 

Warmup complete CPU 0 instructions: 50000002 cycles: 14067228 (Simulation time: 0 hr 3 min 42 sec) 

Heartbeat CPU 0 instructions: 60000001 cycles: 46056524 heartbeat IPC: 0.312605 cumulative IPC: 0.312605 (Simulation time: 0 hr 4 min 48 sec) 
Heartbeat CPU 0 instructions: 70000000 cycles: 77878661 heartbeat IPC: 0.314247 cumulative IPC: 0.313423 (Simulation time: 0 hr 5 min 55 sec) 
Heartbeat CPU 0 instructions: 80000001 cycles: 109685368 heartbeat IPC: 0.314399 cumulative IPC: 0.313748 (Simulation time: 0 hr 6 min 56 sec) 
Heartbeat CPU 0 instructions: 90000001 cycles: 141803779 heartbeat IPC: 0.311348 cumulative IPC: 0.313145 (Simulation time: 0 hr 7 min 52 sec) 
Heartbeat CPU 0 instructions: 100000000 cycles: 173650708 heartbeat IPC: 0.314002 cumulative IPC: 0.313316 (Simulation time: 0 hr 8 min 49 sec) 
*** Reached end of trace for Core: 0 Repeating trace: traces/spec2k17/server_027.champsimtrace.xz
Heartbeat CPU 0 instructions: 110000000 cycles: 205461571 heartbeat IPC: 0.314358 cumulative IPC: 0.313489 (Simulation time: 0 hr 9 min 44 sec) 
Heartbeat CPU 0 instructions: 120000001 cycles: 237206051 heartbeat IPC: 0.315015 cumulative IPC: 0.313706 (Simulation time: 0 hr 10 min 42 sec) 
Heartbeat CPU 0 instructions: 130000000 cycles: 269115516 heartbeat IPC: 0.313387 cumulative IPC: 0.313666 (Simulation time: 0 hr 11 min 43 sec) 
Heartbeat CPU 0 instructions: 140000003 cycles: 300946190 heartbeat IPC: 0.314162 cumulative IPC: 0.313721 (Simulation time: 0 hr 12 min 34 sec) 
Heartbeat CPU 0 instructions: 150000001 cycles: 332719880 heartbeat IPC: 0.314726 cumulative IPC: 0.313821 (Simulation time: 0 hr 13 min 31 sec) 
Heartbeat CPU 0 instructions: 160000000 cycles: 364456913 heartbeat IPC: 0.315089 cumulative IPC: 0.313936 (Simulation time: 0 hr 14 min 29 sec) 
Heartbeat CPU 0 instructions: 170000000 cycles: 396320500 heartbeat IPC: 0.313838 cumulative IPC: 0.313928 (Simulation time: 0 hr 15 min 28 sec) 
Heartbeat CPU 0 instructions: 180000000 cycles: 428021741 heartbeat IPC: 0.315445 cumulative IPC: 0.314044 (Simulation time: 0 hr 16 min 26 sec) 
Heartbeat CPU 0 instructions: 190000001 cycles: 459793905 heartbeat IPC: 0.314741 cumulative IPC: 0.314094 (Simulation time: 0 hr 17 min 27 sec) 
Heartbeat CPU 0 instructions: 200000001 cycles: 491662993 heartbeat IPC: 0.313784 cumulative IPC: 0.314073 (Simulation time: 0 hr 18 min 28 sec) 
*** Reached end of trace for Core: 0 Repeating trace: traces/spec2k17/server_027.champsimtrace.xz
Heartbeat CPU 0 instructions: 210000000 cycles: 523221947 heartbeat IPC: 0.316867 cumulative IPC: 0.314246 (Simulation time: 0 hr 19 min 28 sec) 
Heartbeat CPU 0 instructions: 220000000 cycles: 554822425 heartbeat IPC: 0.316451 cumulative IPC: 0.314375 (Simulation time: 0 hr 20 min 32 sec) 
Heartbeat CPU 0 instructions: 230000000 cycles: 586598236 heartbeat IPC: 0.314705 cumulative IPC: 0.314393 (Simulation time: 0 hr 21 min 37 sec) 
Heartbeat CPU 0 instructions: 240000001 cycles: 618202525 heartbeat IPC: 0.316413 cumulative IPC: 0.314499 (Simulation time: 0 hr 22 min 43 sec) 
Heartbeat CPU 0 instructions: 250000000 cycles: 649777162 heartbeat IPC: 0.31671 cumulative IPC: 0.314609 (Simulation time: 0 hr 23 min 49 sec) 
Finished CPU 0 instructions: 200000002 cycles: 635709967 cumulative IPC: 0.314609 (Simulation time: 0 hr 23 min 49 sec) 

ChampSim completed all CPUs

Region of Interest Statistics

CPU 0 cumulative IPC: 0.314609 instructions: 200000002 cycles: 635709967
ITLB TOTAL     ACCESS:   34664664  HIT:   32639719  MISS:    2024945  HIT %:    94.1585  MISS %:    5.84152   MPKI: 10.1247
ITLB LOAD TRANSLATION ACCESS:   34664664  HIT:   32639719  MISS:    2024945  HIT %:    94.1585  MISS %:    5.84152   MPKI: 10.1247
ITLB PREFETCH  REQUESTED:          0  ISSUED:          0  USEFUL:          0  USELESS:          0
ITLB USEFUL LOAD PREFETCHES:          0 PREFETCH ISSUED TO LOWER LEVEL:          0  ACCURACY: -nan
ITLB TIMELY PREFETCHES:          0 LATE PREFETCHES: 0 DROPPED PREFETCHES: 0
ITLB PREFETCHES SAME FILL-ORIGIN LEVEL: 0 DIFFERENT FILL-ORIGIN LEVEL: 0
ITLB AVERAGE MISS LATENCY: 9.03852 cycles
ITLB RQ	ACCESS:   40882997	FORWARD:          0	MERGED:    5734367	TO_CACHE:   35148630

DTLB TOTAL     ACCESS:   46428060  HIT:   44602137  MISS:    1825923  HIT %:    96.0672  MISS %:     3.9328   MPKI: 9.12961
DTLB LOAD TRANSLATION ACCESS:   46428060  HIT:   44602137  MISS:    1825923  HIT %:    96.0672  MISS %:     3.9328   MPKI: 9.12961
DTLB PREFETCH  REQUESTED:          0  ISSUED:          0  USEFUL:          0  USELESS:          0
DTLB USEFUL LOAD PREFETCHES:          0 PREFETCH ISSUED TO LOWER LEVEL:          0  ACCURACY: -nan
DTLB TIMELY PREFETCHES:          0 LATE PREFETCHES: 0 DROPPED PREFETCHES: 0
DTLB PREFETCHES SAME FILL-ORIGIN LEVEL: 0 DIFFERENT FILL-ORIGIN LEVEL: 0
DTLB AVERAGE MISS LATENCY: 9.10114 cycles
DTLB RQ	ACCESS:   61082802	FORWARD:          0	MERGED:   14589183	TO_CACHE:   46493619

STLB TOTAL     ACCESS:    6065406  HIT:    6057164  MISS:       8242  HIT %:    99.8641  MISS %:   0.135885   MPKI: 0.04121
STLB LOAD TRANSLATION ACCESS:    3850868  HIT:    3842667  MISS:       8201  HIT %:     99.787  MISS %:   0.212965   MPKI: 0.041005
STLB TRANSLATION FROM L1D PREFETCHER ACCESS:    2214538  HIT:    2214497  MISS:         41  HIT %:    99.9981  MISS %:  0.0018514   MPKI: 0.000205
STLB PREFETCH  REQUESTED:          0  ISSUED:          0  USEFUL:         20  USELESS:         16
STLB USEFUL LOAD PREFETCHES:         20 PREFETCH ISSUED TO LOWER LEVEL:          0  ACCURACY: inf
STLB TIMELY PREFETCHES:         20 LATE PREFETCHES: 9 DROPPED PREFETCHES: 774
STLB PREFETCHES SAME FILL-ORIGIN LEVEL: 0 DIFFERENT FILL-ORIGIN LEVEL: 0
STLB AVERAGE MISS LATENCY: 54.6173 cycles
STLB RQ	ACCESS:    6569159	FORWARD:          0	MERGED:     502970	TO_CACHE:    6066189

STLB Hit, L1D data hit: 0
STLB Hit, L2C data hit: 0
STLB Hit, LLC data hit: 0
STLB Hit, LLC data miss: 0
STLB STLB hints to L2: 0
L1D TOTAL     ACCESS:   61810895  HIT:   57887103  MISS:    3923792  HIT %:    93.6519  MISS %:    6.34806   MPKI: 19.619
L1D LOAD      ACCESS:   34211278  HIT:   31574331  MISS:    2636947  HIT %:    92.2922  MISS %:    7.70783   MPKI: 13.1847
L1D RFO       ACCESS:   25024089  HIT:   23909944  MISS:    1114145  HIT %:    95.5477  MISS %:    4.45229   MPKI: 5.57072
L1D PREFETCH  ACCESS:    2575528  HIT:    2402828  MISS:     172700  HIT %:    93.2946  MISS %:    6.70542   MPKI: 0.8635
AGUS PREFETCH L1 MISS: 0
L1D PREFETCH  REQUESTED:    5543115  ISSUED:    5543115  USEFUL:     168051  USELESS:       4649
L1D USEFUL LOAD PREFETCHES:     168051 PREFETCH ISSUED TO LOWER LEVEL:     249496  ACCURACY: 67.3562
L1D TIMELY PREFETCHES:     168051 LATE PREFETCHES: 75990 DROPPED PREFETCHES: 804
L1D PREFETCHES SAME FILL-ORIGIN LEVEL: 249496 DIFFERENT FILL-ORIGIN LEVEL: 0
L1D AVERAGE MISS LATENCY: 9.14311e+06 cycles
L1D RQ	ACCESS:   47483080	FORWARD:          0	MERGED:   12851959	TO_CACHE:   34332750
L1D WQ	ACCESS:   26918036	FORWARD:     300654	MERGED:     167984	TO_CACHE:   26750052
L1D PQ	ACCESS:    2824824	FORWARD:          0	MERGED:     104250	TO_CACHE:    2718291

L1D UNIQUE REGIONS ACCESSED: 0
L1D REGIONS CONFLICTS: 0
L1D Cross Page Prefetch Requests: 2184377
L1D Same Page Prefetch Requests: 648211
L1D ROI Sum of L1D PQ occupancy: 37845993
L1D PREFETCHES PUSHED FROM L2C: 0
L1I TOTAL     ACCESS:   39382669  HIT:   28806197  MISS:   10576472  HIT %:    73.1443  MISS %:    26.8557   MPKI: 52.8824
L1I LOAD      ACCESS:   39382669  HIT:   28806197  MISS:   10576472  HIT %:    73.1443  MISS %:    26.8557   MPKI: 52.8824
L1I PREFETCH  REQUESTED:          0  ISSUED:          0  USEFUL:          0  USELESS:          0
L1I USEFUL LOAD PREFETCHES:          0 PREFETCH ISSUED TO LOWER LEVEL:          0  ACCURACY: -nan
L1I TIMELY PREFETCHES:          0 LATE PREFETCHES: 0 DROPPED PREFETCHES: 0
L1I PREFETCHES SAME FILL-ORIGIN LEVEL: 0 DIFFERENT FILL-ORIGIN LEVEL: 0
L1I AVERAGE MISS LATENCY: 16.1378 cycles
L1I RQ	ACCESS:   57936902	FORWARD:          0	MERGED:   17053905	TO_CACHE:   40882997

BTB TOTAL     ACCESS:   30075438  HIT:   17377784  MISS:   12697654  HIT %:    57.7807  MISS %:    42.2193   MPKI: 63.4883
BTB BRANCH_DIRECT_JUMP	ACCESS:    2026968  HIT:    1138640  MISS:     888328
BTB BRANCH_INDIRECT	ACCESS:   11863620  HIT:    7044030  MISS:    4819590
BTB BRANCH_CONDITIONAL	ACCESS:    7648131  HIT:    6314456  MISS:    1333675
BTB BRANCH_DIRECT_CALL	ACCESS:    3599197  HIT:    1507522  MISS:    2091675
BTB BRANCH_INDIRECT_CALL	ACCESS:     669164  HIT:     263401  MISS:     405763
BTB BRANCH_RETURN	ACCESS:    4268358  HIT:    1109735  MISS:    3158623
BTB BRANCH_OTHER ACCESS:          0  HIT:          0  MISS:          0

L2C TOTAL     ACCESS:   16456151  HIT:   15221960  MISS:    1234191  HIT %:    92.5001  MISS %:    7.49988   MPKI: 6.17095
L2C LOAD      ACCESS:   13137429  HIT:   12130425  MISS:    1007004  HIT %:    92.3348  MISS %:    7.66515   MPKI: 5.03502
L2C DATA LOAD MPKI: 1.46805
L2C INSTRUCTION LOAD MPKI: 3.56697
L2C RFO       ACCESS:    1113339  HIT:     949803  MISS:     163536  HIT %:    85.3112  MISS %:    14.6888   MPKI: 0.81768
L2C PREFETCH  ACCESS:     249496  HIT:     235852  MISS:      13644  HIT %:    94.5314  MISS %:    5.46862   MPKI: 0.06822
AGUS PREFETCH L1 MISS: 0
L2C DATA PREFETCH MPKI: 0.06822
L2C INSTRUCTION PREFETCH MPKI: 0
L2C WRITEBACK ACCESS:    1945560  HIT:    1902207  MISS:      43353  HIT %:    97.7717  MISS %:     2.2283   MPKI: 0.216765
L2C LOAD TRANSLATION ACCESS:       8802  HIT:       2866  MISS:       5936  HIT %:    32.5608  MISS %:    67.4392   MPKI: 0.02968
L2C TRANSLATION FROM L1D PREFETCHER ACCESS:       1525  HIT:        807  MISS:        718  HIT %:     52.918  MISS %:     47.082   MPKI: 0.00359
L2C PREFETCH  REQUESTED:          0  ISSUED:          0  USEFUL:       3464  USELESS:      10856
L2C USEFUL LOAD PREFETCHES:       3464 PREFETCH ISSUED TO LOWER LEVEL:      13644  ACCURACY: 25.3884
L2C TIMELY PREFETCHES:       3464 LATE PREFETCHES: 0 DROPPED PREFETCHES: 0
L2C PREFETCHES SAME FILL-ORIGIN LEVEL: 0 DIFFERENT FILL-ORIGIN LEVEL: 0
L2C AVERAGE MISS LATENCY: 39.532 cycles
L2C RQ	ACCESS:   14261095	FORWARD:          0	MERGED:          0	TO_CACHE:   14261095
L2C WQ	ACCESS:    1945560	FORWARD:          0	MERGED:          0	TO_CACHE:    1945560
L2C PQ	ACCESS:     249496	FORWARD:          0	MERGED:          0	TO_CACHE:     249496

L2C Instructions Evicting Data 263249
L2C Translations Evicting Data 4293
L2C Data Evicting Data 229737
L2C Instructions Evicting Instructions 447890
L2C Translations Evicting Instructions 2271
L2C Data Evicting Instructions 236784
L2C Instructions Evicting Translations 2255
L2C Translations Evicting Translations 90
L2C Data Evicting Translations 4269
L2C Dense regions hint from L2: 0
PSCL5 TOTAL     ACCESS:       9011  HIT:       9011  MISS:          0  HIT %:        100  MISS %:          0   MPKI: 0
PSCL5 LOAD TRANSLATION ACCESS:       8192  HIT:       8192  MISS:          0  HIT %:        100  MISS %:          0   MPKI: 0
PSCL5 TRANSLATION FROM L1D PREFETCHER ACCESS:        819  HIT:        819  MISS:          0  HIT %:        100  MISS %:          0   MPKI: 0
PSCL5 PREFETCH  REQUESTED:          0  ISSUED:          0  USEFUL:          0  USELESS:          0
PSCL5 USEFUL LOAD PREFETCHES:          0 PREFETCH ISSUED TO LOWER LEVEL:          0  ACCURACY: -nan
PSCL5 TIMELY PREFETCHES:          0 LATE PREFETCHES: 0 DROPPED PREFETCHES: 0
PSCL5 PREFETCHES SAME FILL-ORIGIN LEVEL: 0 DIFFERENT FILL-ORIGIN LEVEL: 0

PSCL4 TOTAL     ACCESS:       7574  HIT:       7509  MISS:         65  HIT %:    99.1418  MISS %:   0.858199   MPKI: 0.000325
PSCL4 LOAD TRANSLATION ACCESS:       6934  HIT:       6869  MISS:         65  HIT %:    99.0626  MISS %:    0.93741   MPKI: 0.000325
PSCL4 TRANSLATION FROM L1D PREFETCHER ACCESS:        640  HIT:        640  MISS:          0  HIT %:        100  MISS %:          0   MPKI: 0
PSCL4 PREFETCH  REQUESTED:          0  ISSUED:          0  USEFUL:          0  USELESS:          0
PSCL4 USEFUL LOAD PREFETCHES:          0 PREFETCH ISSUED TO LOWER LEVEL:          0  ACCURACY: -nan
PSCL4 TIMELY PREFETCHES:          0 LATE PREFETCHES: 0 DROPPED PREFETCHES: 0
PSCL4 PREFETCHES SAME FILL-ORIGIN LEVEL: 0 DIFFERENT FILL-ORIGIN LEVEL: 0

PSCL3 TOTAL     ACCESS:       7729  HIT:       7664  MISS:         65  HIT %:     99.159  MISS %:   0.840988   MPKI: 0.000325
PSCL3 LOAD TRANSLATION ACCESS:       7071  HIT:       7006  MISS:         65  HIT %:    99.0808  MISS %:   0.919248   MPKI: 0.000325
PSCL3 TRANSLATION FROM L1D PREFETCHER ACCESS:        658  HIT:        658  MISS:          0  HIT %:        100  MISS %:          0   MPKI: 0
PSCL3 PREFETCH  REQUESTED:          0  ISSUED:          0  USEFUL:          0  USELESS:          0
PSCL3 USEFUL LOAD PREFETCHES:          0 PREFETCH ISSUED TO LOWER LEVEL:          0  ACCURACY: -nan
PSCL3 TIMELY PREFETCHES:          0 LATE PREFETCHES: 0 DROPPED PREFETCHES: 0
PSCL3 PREFETCHES SAME FILL-ORIGIN LEVEL: 0 DIFFERENT FILL-ORIGIN LEVEL: 0

PSCL2 TOTAL     ACCESS:       8461  HIT:       7975  MISS:        486  HIT %:     94.256  MISS %:      5.744   MPKI: 0.00243
PSCL2 LOAD TRANSLATION ACCESS:       8194  HIT:       7708  MISS:        486  HIT %:    94.0688  MISS %:    5.93117   MPKI: 0.00243
PSCL2 TRANSLATION FROM L1D PREFETCHER ACCESS:        267  HIT:        267  MISS:          0  HIT %:        100  MISS %:          0   MPKI: 0
PSCL2 PREFETCH  REQUESTED:          0  ISSUED:          0  USEFUL:          0  USELESS:          0
PSCL2 USEFUL LOAD PREFETCHES:          0 PREFETCH ISSUED TO LOWER LEVEL:          0  ACCURACY: -nan
PSCL2 TIMELY PREFETCHES:          0 LATE PREFETCHES: 0 DROPPED PREFETCHES: 0
PSCL2 PREFETCHES SAME FILL-ORIGIN LEVEL: 0 DIFFERENT FILL-ORIGIN LEVEL: 0

LLC TOTAL     ACCESS:    1413364  HIT:    1333327  MISS:      80037  HIT %:    94.3371  MISS %:    5.66287   MPKI: 0.400185
LLC LOAD      ACCESS:    1007004  HIT:     975427  MISS:      31577  HIT %:    96.8643  MISS %:    3.13574   MPKI: 0.157885
LLC RFO       ACCESS:     163536  HIT:     116564  MISS:      46972  HIT %:    71.2773  MISS %:    28.7227   MPKI: 0.23486
LLC PREFETCH  ACCESS:      13644  HIT:      13375  MISS:        269  HIT %:    98.0284  MISS %:    1.97156   MPKI: 0.001345
AGUS PREFETCH L1 MISS: 0
LLC WRITEBACK ACCESS:     222526  HIT:     221733  MISS:        793  HIT %:    99.6436  MISS %:   0.356363   MPKI: 0.003965
LLC LOAD TRANSLATION ACCESS:       5936  HIT:       5608  MISS:        328  HIT %:    94.4744  MISS %:    5.52561   MPKI: 0.00164
LLC TRANSLATION FROM L1D PREFETCHER ACCESS:        718  HIT:        620  MISS:         98  HIT %:     86.351  MISS %:     13.649   MPKI: 0.00049
LLC PREFETCH  REQUESTED:          0  ISSUED:          0  USEFUL:         69  USELESS:        205
LLC USEFUL LOAD PREFETCHES:         69 PREFETCH ISSUED TO LOWER LEVEL:        269  ACCURACY: 25.6506
LLC TIMELY PREFETCHES:         69 LATE PREFETCHES: 0 DROPPED PREFETCHES: 0
LLC PREFETCHES SAME FILL-ORIGIN LEVEL: 0 DIFFERENT FILL-ORIGIN LEVEL: 0
LLC AVERAGE MISS LATENCY: 162.804 cycles
LLC RQ	ACCESS:    1177194	FORWARD:          0	MERGED:          0	TO_CACHE:    1177194
LLC WQ	ACCESS:     222526	FORWARD:          0	MERGED:          0	TO_CACHE:     222526
LLC PQ	ACCESS:      13644	FORWARD:          0	MERGED:          0	TO_CACHE:      13644

LLC Dense regions hint to LLC: 0

RAW hits: 1427726
Loads Generated: 48910806
Loads sent to L1D: 47483080
Stores Generated: 26918028
Stores sent to L1D: 26918036
Major fault: 0 Minor fault: 2582
Allocated PAGES: 2582
Completed 
Accuracy : 92.6709
Number of unique groups: 2249526

DRAM Statistics
 CHANNEL 0
 RQ ROW_BUFFER_HIT:      31422  ROW_BUFFER_MISS:      47814
 DBUS_CONGESTED:         42
 WQ ROW_BUFFER_HIT:       4527  ROW_BUFFER_MISS:      43474  FULL:          0

 AVG_CONGESTED_CYCLE: 5
 All warmup complete: 2
Channel 0 Bank busy for read cycles: 0
Channel 0 Bank busy for write cycles: 0
Channel 0
Rank 0
0banks busy for read cycles: 629734873
0banks busy for write cycles: 9991
1banks busy for read cycles: 1984048
1banks busy for write cycles: 1252974
2banks busy for read cycles: 343807
2banks busy for write cycles: 256241
3banks busy for read cycles: 235867
3banks busy for write cycles: 151522
4banks busy for read cycles: 175804
4banks busy for write cycles: 129462
5banks busy for read cycles: 137159
5banks busy for write cycles: 113892
6banks busy for read cycles: 147483
6banks busy for write cycles: 126172
7banks busy for read cycles: 126163
7banks busy for write cycles: 146008
8banks busy for read cycles: 279004
8banks busy for write cycles: 359498

CPU 0 Branch Prediction Accuracy: 99.8608% MPKI: 0.244675 Average ROB Occupancy at Mispredict: 30.7851
Branch types
NOT_BRANCH: 164851252 82.4256%
BRANCH_DIRECT_JUMP: 2026968 1.01348%
BRANCH_INDIRECT: 11863620 5.93181%
BRANCH_CONDITIONAL: 12721079 6.36054%
BRANCH_DIRECT_CALL: 3599197 1.7996%
BRANCH_INDIRECT_CALL: 669164 0.334582%
BRANCH_RETURN: 4268358 2.13418%
BRANCH_OTHER: 0 0%

DRAM PAGES: 1048576
Allocated PAGES: 2582
