
*** ChampSim Multicore Out-of-Order Simulator ***

Warmup Instructions: 50000000
Simulation Instructions: 200000000
Number of CPUs: 1
LLC sets: 2048
LLC ways: 16
Off-chip DRAM Size: 4096 MB Channels: 1 Width: 64-bit Data Rate: 6400 MT/s
CPU 0 runs traces/spec2k17/server_021.champsimtrace.xz
.xz
BTB has LRU replacement policy
ITLB has LRU replacement policy
DTLB has LRU replacement policy
STLB has LRU replacement policy
L1I has LRU replacement policy
L1D has LRU replacement policy
Initialize SRRIP state for L2C
Initialize DRRIP state for LLC
Heartbeat CPU 0 instructions: 10000003 cycles: 2943379 heartbeat IPC: 3.39746 cumulative IPC: 3.39746 (Simulation time: 0 hr 0 min 57 sec) 
Heartbeat CPU 0 instructions: 20000002 cycles: 5878165 heartbeat IPC: 3.4074 cumulative IPC: 3.40242 (Simulation time: 0 hr 1 min 58 sec) 
Heartbeat CPU 0 instructions: 30000000 cycles: 8819681 heartbeat IPC: 3.39961 cumulative IPC: 3.40148 (Simulation time: 0 hr 3 min 9 sec) 
Heartbeat CPU 0 instructions: 40000003 cycles: 11755462 heartbeat IPC: 3.40625 cumulative IPC: 3.40267 (Simulation time: 0 hr 4 min 24 sec) 
Heartbeat CPU 0 instructions: 50000000 cycles: 14696094 heartbeat IPC: 3.40063 cumulative IPC: 3.40226 (Simulation time: 0 hr 5 min 38 sec) 

Warmup complete CPU 0 instructions: 50000001 cycles: 14696095 (Simulation time: 0 hr 5 min 38 sec) 

Heartbeat CPU 0 instructions: 60000001 cycles: 35441675 heartbeat IPC: 0.48203 cumulative IPC: 0.48203 (Simulation time: 0 hr 7 min 22 sec) 
Heartbeat CPU 0 instructions: 70000001 cycles: 55887471 heartbeat IPC: 0.489098 cumulative IPC: 0.485539 (Simulation time: 0 hr 9 min 14 sec) 
Heartbeat CPU 0 instructions: 80000001 cycles: 75651072 heartbeat IPC: 0.505981 cumulative IPC: 0.492167 (Simulation time: 0 hr 11 min 11 sec) 
Heartbeat CPU 0 instructions: 90000002 cycles: 95037728 heartbeat IPC: 0.515819 cumulative IPC: 0.497874 (Simulation time: 0 hr 13 min 22 sec) 
Heartbeat CPU 0 instructions: 100000000 cycles: 114453775 heartbeat IPC: 0.515038 cumulative IPC: 0.501215 (Simulation time: 0 hr 15 min 57 sec) 
*** Reached end of trace for Core: 0 Repeating trace: traces/spec2k17/server_021.champsimtrace.xz
Heartbeat CPU 0 instructions: 110000000 cycles: 133957246 heartbeat IPC: 0.512729 cumulative IPC: 0.503098 (Simulation time: 0 hr 18 min 36 sec) 
Heartbeat CPU 0 instructions: 120000003 cycles: 153296844 heartbeat IPC: 0.517074 cumulative IPC: 0.505048 (Simulation time: 0 hr 21 min 37 sec) 
Heartbeat CPU 0 instructions: 130000000 cycles: 172605943 heartbeat IPC: 0.51789 cumulative IPC: 0.506618 (Simulation time: 0 hr 25 min 1 sec) 
Heartbeat CPU 0 instructions: 140000001 cycles: 191971431 heartbeat IPC: 0.516383 cumulative IPC: 0.507685 (Simulation time: 0 hr 28 min 53 sec) 
Heartbeat CPU 0 instructions: 150000003 cycles: 211316525 heartbeat IPC: 0.516927 cumulative IPC: 0.508594 (Simulation time: 0 hr 34 min 11 sec) 
Heartbeat CPU 0 instructions: 160000001 cycles: 230790372 heartbeat IPC: 0.513509 cumulative IPC: 0.509037 (Simulation time: 0 hr 38 min 47 sec) 
Heartbeat CPU 0 instructions: 170000001 cycles: 250124949 heartbeat IPC: 0.517208 cumulative IPC: 0.509708 (Simulation time: 0 hr 43 min 32 sec) 
Heartbeat CPU 0 instructions: 180000000 cycles: 269505554 heartbeat IPC: 0.51598 cumulative IPC: 0.510185 (Simulation time: 0 hr 47 min 1 sec) 
Heartbeat CPU 0 instructions: 190000000 cycles: 288888890 heartbeat IPC: 0.515907 cumulative IPC: 0.51059 (Simulation time: 0 hr 49 min 34 sec) 
Heartbeat CPU 0 instructions: 200000002 cycles: 308138759 heartbeat IPC: 0.519484 cumulative IPC: 0.511173 (Simulation time: 0 hr 51 min 22 sec) 
Heartbeat CPU 0 instructions: 210000001 cycles: 327407520 heartbeat IPC: 0.518975 cumulative IPC: 0.511654 (Simulation time: 0 hr 53 min 42 sec) 
*** Reached end of trace for Core: 0 Repeating trace: traces/spec2k17/server_021.champsimtrace.xz
Heartbeat CPU 0 instructions: 220000000 cycles: 346874366 heartbeat IPC: 0.513694 cumulative IPC: 0.511773 (Simulation time: 0 hr 55 min 16 sec) 
Heartbeat CPU 0 instructions: 230000003 cycles: 366190254 heartbeat IPC: 0.517709 cumulative IPC: 0.5121 (Simulation time: 0 hr 56 min 35 sec) 
Heartbeat CPU 0 instructions: 240000002 cycles: 385504515 heartbeat IPC: 0.517752 cumulative IPC: 0.512394 (Simulation time: 0 hr 57 min 47 sec) 
Heartbeat CPU 0 instructions: 250000000 cycles: 404839926 heartbeat IPC: 0.517186 cumulative IPC: 0.512631 (Simulation time: 0 hr 58 min 50 sec) 
Finished CPU 0 instructions: 200000003 cycles: 390143832 cumulative IPC: 0.512631 (Simulation time: 0 hr 58 min 50 sec) 

ChampSim completed all CPUs

Region of Interest Statistics

CPU 0 cumulative IPC: 0.512631 instructions: 200000003 cycles: 390143832
ITLB TOTAL     ACCESS:   33760443  HIT:   32226182  MISS:    1534261  HIT %:    95.4554  MISS %:    4.54455   MPKI: 7.6713
ITLB LOAD TRANSLATION ACCESS:   33760443  HIT:   32226182  MISS:    1534261  HIT %:    95.4554  MISS %:    4.54455   MPKI: 7.6713
ITLB PREFETCH  REQUESTED:          0  ISSUED:          0  USEFUL:          0  USELESS:          0
ITLB USEFUL LOAD PREFETCHES:          0 PREFETCH ISSUED TO LOWER LEVEL:          0  ACCURACY: -nan
ITLB TIMELY PREFETCHES:          0 LATE PREFETCHES: 0 DROPPED PREFETCHES: 0
ITLB PREFETCHES SAME FILL-ORIGIN LEVEL: 0 DIFFERENT FILL-ORIGIN LEVEL: 0
ITLB AVERAGE MISS LATENCY: 9.21889 cycles
ITLB RQ	ACCESS:   40639003	FORWARD:          0	MERGED:    6384514	TO_CACHE:   34254489

DTLB TOTAL     ACCESS:   39814638  HIT:   38316284  MISS:    1498354  HIT %:    96.2367  MISS %:    3.76332   MPKI: 7.49177
DTLB LOAD TRANSLATION ACCESS:   39814638  HIT:   38316284  MISS:    1498354  HIT %:    96.2367  MISS %:    3.76332   MPKI: 7.49177
DTLB PREFETCH  REQUESTED:          0  ISSUED:          0  USEFUL:          0  USELESS:          0
DTLB USEFUL LOAD PREFETCHES:          0 PREFETCH ISSUED TO LOWER LEVEL:          0  ACCURACY: -nan
DTLB TIMELY PREFETCHES:          0 LATE PREFETCHES: 0 DROPPED PREFETCHES: 0
DTLB PREFETCHES SAME FILL-ORIGIN LEVEL: 0 DIFFERENT FILL-ORIGIN LEVEL: 0
DTLB AVERAGE MISS LATENCY: 14.4803 cycles
DTLB RQ	ACCESS:   60955082	FORWARD:          0	MERGED:   20750406	TO_CACHE:   40204676

STLB TOTAL     ACCESS:    4931718  HIT:    4856070  MISS:      75648  HIT %:    98.4661  MISS %:    1.53391   MPKI: 0.37824
STLB LOAD TRANSLATION ACCESS:    3032615  HIT:    2959275  MISS:      73340  HIT %:    97.5816  MISS %:    2.41837   MPKI: 0.3667
STLB TRANSLATION FROM L1D PREFETCHER ACCESS:    1899103  HIT:    1896795  MISS:       2308  HIT %:    99.8785  MISS %:   0.121531   MPKI: 0.01154
STLB PREFETCH  REQUESTED:          0  ISSUED:          0  USEFUL:       2007  USELESS:        300
STLB USEFUL LOAD PREFETCHES:       2007 PREFETCH ISSUED TO LOWER LEVEL:          0  ACCURACY: inf
STLB TIMELY PREFETCHES:       2007 LATE PREFETCHES: 626 DROPPED PREFETCHES: 3737
STLB PREFETCHES SAME FILL-ORIGIN LEVEL: 0 DIFFERENT FILL-ORIGIN LEVEL: 0
STLB AVERAGE MISS LATENCY: 116.135 cycles
STLB RQ	ACCESS:    6060988	FORWARD:          0	MERGED:    1124904	TO_CACHE:    4936084

STLB Hit, L1D data hit: 0
STLB Hit, L2C data hit: 0
STLB Hit, LLC data hit: 0
STLB Hit, LLC data miss: 0
STLB STLB hints to L2: 0
L1D TOTAL     ACCESS:   51243854  HIT:   44472696  MISS:    6771158  HIT %:    86.7864  MISS %:    13.2136   MPKI: 33.8558
L1D LOAD      ACCESS:   26654358  HIT:   23763509  MISS:    2890849  HIT %:    89.1543  MISS %:    10.8457   MPKI: 14.4542
L1D RFO       ACCESS:   22252151  HIT:   18566005  MISS:    3686146  HIT %:    83.4347  MISS %:    16.5653   MPKI: 18.4307
L1D PREFETCH  ACCESS:    2337345  HIT:    2143182  MISS:     194163  HIT %:     91.693  MISS %:    8.30699   MPKI: 0.970815
AGUS PREFETCH L1 MISS: 0
L1D PREFETCH  REQUESTED:    6213113  ISSUED:    6212932  USEFUL:     174402  USELESS:      19763
L1D USEFUL LOAD PREFETCHES:     174402 PREFETCH ISSUED TO LOWER LEVEL:     502244  ACCURACY: 34.7246
L1D TIMELY PREFETCHES:     174402 LATE PREFETCHES: 308069 DROPPED PREFETCHES: 4370
L1D PREFETCHES SAME FILL-ORIGIN LEVEL: 502244 DIFFERENT FILL-ORIGIN LEVEL: 0
L1D AVERAGE MISS LATENCY: 9.72202e+06 cycles
L1D RQ	ACCESS:   45153202	FORWARD:          0	MERGED:   17817657	TO_CACHE:   27053047
L1D WQ	ACCESS:   34105995	FORWARD:     297741	MERGED:     203960	TO_CACHE:   33902035
L1D PQ	ACCESS:    3184559	FORWARD:          0	MERGED:     140943	TO_CACHE:    3028373

L1D UNIQUE REGIONS ACCESSED: 0
L1D REGIONS CONFLICTS: 0
L1D Cross Page Prefetch Requests: 1606993
L1D Same Page Prefetch Requests: 2083798
L1D ROI Sum of L1D PQ occupancy: 45700765
L1D PREFETCHES PUSHED FROM L2C: 0
L1I TOTAL     ACCESS:   37988737  HIT:   28908509  MISS:    9080228  HIT %:    76.0976  MISS %:    23.9024   MPKI: 45.4011
L1I LOAD      ACCESS:   37988737  HIT:   28908509  MISS:    9080228  HIT %:    76.0976  MISS %:    23.9024   MPKI: 45.4011
L1I PREFETCH  REQUESTED:          0  ISSUED:          0  USEFUL:          0  USELESS:          0
L1I USEFUL LOAD PREFETCHES:          0 PREFETCH ISSUED TO LOWER LEVEL:          0  ACCURACY: -nan
L1I TIMELY PREFETCHES:          0 LATE PREFETCHES: 0 DROPPED PREFETCHES: 0
L1I PREFETCHES SAME FILL-ORIGIN LEVEL: 0 DIFFERENT FILL-ORIGIN LEVEL: 0
L1I AVERAGE MISS LATENCY: 16.5613 cycles
L1I RQ	ACCESS:   58957586	FORWARD:          0	MERGED:   18318583	TO_CACHE:   40639003

BTB TOTAL     ACCESS:   25736961  HIT:   24179944  MISS:    1557017  HIT %:    93.9503  MISS %:    6.04973   MPKI: 7.78508
BTB BRANCH_DIRECT_JUMP	ACCESS:    1656182  HIT:    1646075  MISS:      10107
BTB BRANCH_INDIRECT	ACCESS:    9984753  HIT:    9460939  MISS:     523814
BTB BRANCH_CONDITIONAL	ACCESS:    7260252  HIT:    7246132  MISS:      14120
BTB BRANCH_DIRECT_CALL	ACCESS:    2821015  HIT:    2786715  MISS:      34300
BTB BRANCH_INDIRECT_CALL	ACCESS:     596869  HIT:     485589  MISS:     111280
BTB BRANCH_RETURN	ACCESS:    3417890  HIT:    2554494  MISS:     863396
BTB BRANCH_OTHER ACCESS:          0  HIT:          0  MISS:          0

L2C TOTAL     ACCESS:   20269971  HIT:   13706778  MISS:    6563193  HIT %:    67.6211  MISS %:    32.3789   MPKI: 32.816
L2C LOAD      ACCESS:   11662884  HIT:    9246176  MISS:    2416708  HIT %:    79.2786  MISS %:    20.7214   MPKI: 12.0835
L2C DATA LOAD MPKI: 9.33473
L2C INSTRUCTION LOAD MPKI: 2.74881
L2C RFO       ACCESS:    3686129  HIT:     177141  MISS:    3508988  HIT %:    4.80561  MISS %:    95.1944   MPKI: 17.5449
L2C PREFETCH  ACCESS:     502202  HIT:      34299  MISS:     467903  HIT %:    6.82972  MISS %:    93.1703   MPKI: 2.33951
AGUS PREFETCH L1 MISS: 0
L2C DATA PREFETCH MPKI: 2.33951
L2C INSTRUCTION PREFETCH MPKI: 0
L2C WRITEBACK ACCESS:    4332925  HIT:    4201458  MISS:     131467  HIT %:    96.9659  MISS %:    3.03414   MPKI: 0.657335
L2C LOAD TRANSLATION ACCESS:      78447  HIT:      44488  MISS:      33959  HIT %:    56.7109  MISS %:    43.2891   MPKI: 0.169795
L2C TRANSLATION FROM L1D PREFETCHER ACCESS:       7384  HIT:       3216  MISS:       4168  HIT %:    43.5536  MISS %:    56.4464   MPKI: 0.02084
L2C PREFETCH  REQUESTED:          0  ISSUED:          0  USEFUL:       5189  USELESS:     467402
L2C USEFUL LOAD PREFETCHES:       5189 PREFETCH ISSUED TO LOWER LEVEL:     467903  ACCURACY: 1.10899
L2C TIMELY PREFETCHES:       5189 LATE PREFETCHES: 0 DROPPED PREFETCHES: 0
L2C PREFETCHES SAME FILL-ORIGIN LEVEL: 0 DIFFERENT FILL-ORIGIN LEVEL: 0
L2C AVERAGE MISS LATENCY: 165.186 cycles
L2C RQ	ACCESS:   15434973	FORWARD:          0	MERGED:          0	TO_CACHE:   15434845
L2C WQ	ACCESS:    4332925	FORWARD:        170	MERGED:          0	TO_CACHE:    4332925
L2C PQ	ACCESS:     502244	FORWARD:          0	MERGED:          0	TO_CACHE:     502202

L2C Instructions Evicting Data 511235
L2C Translations Evicting Data 34910
L2C Data Evicting Data 5310336
L2C Instructions Evicting Instructions 35556
L2C Translations Evicting Instructions 2921
L2C Data Evicting Instructions 499239
L2C Instructions Evicting Translations 2971
L2C Translations Evicting Translations 296
L2C Data Evicting Translations 34262
L2C Dense regions hint from L2: 0
PSCL5 TOTAL     ACCESS:      79367  HIT:      79367  MISS:          0  HIT %:        100  MISS %:          0   MPKI: 0
PSCL5 LOAD TRANSLATION ACCESS:      72714  HIT:      72714  MISS:          0  HIT %:        100  MISS %:          0   MPKI: 0
PSCL5 TRANSLATION FROM L1D PREFETCHER ACCESS:       6653  HIT:       6653  MISS:          0  HIT %:        100  MISS %:          0   MPKI: 0
PSCL5 PREFETCH  REQUESTED:          0  ISSUED:          0  USEFUL:          0  USELESS:          0
PSCL5 USEFUL LOAD PREFETCHES:          0 PREFETCH ISSUED TO LOWER LEVEL:          0  ACCURACY: -nan
PSCL5 TIMELY PREFETCHES:          0 LATE PREFETCHES: 0 DROPPED PREFETCHES: 0
PSCL5 PREFETCHES SAME FILL-ORIGIN LEVEL: 0 DIFFERENT FILL-ORIGIN LEVEL: 0

PSCL4 TOTAL     ACCESS:      77217  HIT:      77052  MISS:        165  HIT %:    99.7863  MISS %:   0.213684   MPKI: 0.000825
PSCL4 LOAD TRANSLATION ACCESS:      70800  HIT:      70635  MISS:        165  HIT %:    99.7669  MISS %:   0.233051   MPKI: 0.000825
PSCL4 TRANSLATION FROM L1D PREFETCHER ACCESS:       6417  HIT:       6417  MISS:          0  HIT %:        100  MISS %:          0   MPKI: 0
PSCL4 PREFETCH  REQUESTED:          0  ISSUED:          0  USEFUL:          0  USELESS:          0
PSCL4 USEFUL LOAD PREFETCHES:          0 PREFETCH ISSUED TO LOWER LEVEL:          0  ACCURACY: -nan
PSCL4 TIMELY PREFETCHES:          0 LATE PREFETCHES: 0 DROPPED PREFETCHES: 0
PSCL4 PREFETCHES SAME FILL-ORIGIN LEVEL: 0 DIFFERENT FILL-ORIGIN LEVEL: 0

PSCL3 TOTAL     ACCESS:      77914  HIT:      77749  MISS:        165  HIT %:    99.7882  MISS %:   0.211772   MPKI: 0.000825
PSCL3 LOAD TRANSLATION ACCESS:      71626  HIT:      71461  MISS:        165  HIT %:    99.7696  MISS %:   0.230363   MPKI: 0.000825
PSCL3 TRANSLATION FROM L1D PREFETCHER ACCESS:       6288  HIT:       6288  MISS:          0  HIT %:        100  MISS %:          0   MPKI: 0
PSCL3 PREFETCH  REQUESTED:          0  ISSUED:          0  USEFUL:          0  USELESS:          0
PSCL3 USEFUL LOAD PREFETCHES:          0 PREFETCH ISSUED TO LOWER LEVEL:          0  ACCURACY: -nan
PSCL3 TIMELY PREFETCHES:          0 LATE PREFETCHES: 0 DROPPED PREFETCHES: 0
PSCL3 PREFETCHES SAME FILL-ORIGIN LEVEL: 0 DIFFERENT FILL-ORIGIN LEVEL: 0

PSCL2 TOTAL     ACCESS:      78359  HIT:      72833  MISS:       5526  HIT %:    92.9478  MISS %:    7.05216   MPKI: 0.02763
PSCL2 LOAD TRANSLATION ACCESS:      72812  HIT:      67286  MISS:       5526  HIT %:    92.4106  MISS %:    7.58941   MPKI: 0.02763
PSCL2 TRANSLATION FROM L1D PREFETCHER ACCESS:       5547  HIT:       5547  MISS:          0  HIT %:        100  MISS %:          0   MPKI: 0
PSCL2 PREFETCH  REQUESTED:          0  ISSUED:          0  USEFUL:          0  USELESS:          0
PSCL2 USEFUL LOAD PREFETCHES:          0 PREFETCH ISSUED TO LOWER LEVEL:          0  ACCURACY: -nan
PSCL2 TIMELY PREFETCHES:          0 LATE PREFETCHES: 0 DROPPED PREFETCHES: 0
PSCL2 PREFETCHES SAME FILL-ORIGIN LEVEL: 0 DIFFERENT FILL-ORIGIN LEVEL: 0

LLC TOTAL     ACCESS:   10434122  HIT:    4370362  MISS:    6063760  HIT %:    41.8853  MISS %:    58.1147   MPKI: 30.3188
LLC LOAD      ACCESS:    2416707  HIT:    1587588  MISS:     829119  HIT %:    65.6922  MISS %:    34.3078   MPKI: 4.14559
LLC RFO       ACCESS:    3508968  HIT:     948709  MISS:    2560259  HIT %:    27.0367  MISS %:    72.9633   MPKI: 12.8013
LLC PREFETCH  ACCESS:     467903  HIT:      16412  MISS:     451491  HIT %:    3.50756  MISS %:    96.4924   MPKI: 2.25745
AGUS PREFETCH L1 MISS: 0
LLC WRITEBACK ACCESS:    4002417  HIT:    1803555  MISS:    2198862  HIT %:    45.0616  MISS %:    54.9384   MPKI: 10.9943
LLC LOAD TRANSLATION ACCESS:      33959  HIT:      12811  MISS:      21148  HIT %:    37.7249  MISS %:    62.2751   MPKI: 0.10574
LLC TRANSLATION FROM L1D PREFETCHER ACCESS:       4168  HIT:       1287  MISS:       2881  HIT %:    30.8781  MISS %:    69.1219   MPKI: 0.014405
LLC PREFETCH  REQUESTED:          0  ISSUED:          0  USEFUL:       2331  USELESS:     456003
LLC USEFUL LOAD PREFETCHES:       2331 PREFETCH ISSUED TO LOWER LEVEL:     451491  ACCURACY: 0.516289
LLC TIMELY PREFETCHES:       2331 LATE PREFETCHES: 0 DROPPED PREFETCHES: 0
LLC PREFETCHES SAME FILL-ORIGIN LEVEL: 0 DIFFERENT FILL-ORIGIN LEVEL: 0
LLC AVERAGE MISS LATENCY: 146.535 cycles
LLC RQ	ACCESS:    5963823	FORWARD:          0	MERGED:          0	TO_CACHE:    5963802
LLC WQ	ACCESS:    4002417	FORWARD:         21	MERGED:          0	TO_CACHE:    4002417
LLC PQ	ACCESS:     467903	FORWARD:          0	MERGED:          0	TO_CACHE:     467903

LLC Dense regions hint to LLC: 0

RAW hits: 2517295
Loads Generated: 47670499
Loads sent to L1D: 45153202
Stores Generated: 34105974
Stores sent to L1D: 34105995
Major fault: 0 Minor fault: 22424
Allocated PAGES: 22424
Completed 
Accuracy : 77.8684
Number of unique groups: 3870959

DRAM Statistics
 CHANNEL 0
 RQ ROW_BUFFER_HIT:    1789388  ROW_BUFFER_MISS:    2075108
 DBUS_CONGESTED:       1651
 WQ ROW_BUFFER_HIT:     567889  ROW_BUFFER_MISS:    2065898  FULL:      53905

 AVG_CONGESTED_CYCLE: 3
 All warmup complete: 2
Channel 0 Bank busy for read cycles: 0
Channel 0 Bank busy for write cycles: 0
Channel 0
Rank 0
0banks busy for read cycles: 181713333
0banks busy for write cycles: 251068
1banks busy for read cycles: 30677055
1banks busy for write cycles: 35281844
2banks busy for read cycles: 11759794
2banks busy for write cycles: 12349719
3banks busy for read cycles: 14990780
3banks busy for write cycles: 5406331
4banks busy for read cycles: 5716096
4banks busy for write cycles: 3509735
5banks busy for read cycles: 5051831
5banks busy for write cycles: 3083225
6banks busy for read cycles: 6206373
6banks busy for write cycles: 3144535
7banks busy for read cycles: 7378044
7banks busy for write cycles: 5752101
8banks busy for read cycles: 21514665
8banks busy for write cycles: 36357304

CPU 0 Branch Prediction Accuracy: 99.9423% MPKI: 0.088365 Average ROB Occupancy at Mispredict: 117.001
Branch types
NOT_BRANCH: 169393846 84.6969%
BRANCH_DIRECT_JUMP: 1656182 0.828091%
BRANCH_INDIRECT: 9984753 4.99238%
BRANCH_CONDITIONAL: 12129382 6.06469%
BRANCH_DIRECT_CALL: 2821015 1.41051%
BRANCH_INDIRECT_CALL: 596869 0.298434%
BRANCH_RETURN: 3417890 1.70894%
BRANCH_OTHER: 0 0%

DRAM PAGES: 1048576
Allocated PAGES: 22424
