
*** ChampSim Multicore Out-of-Order Simulator ***

Warmup Instructions: 50000000
Simulation Instructions: 200000000
Number of CPUs: 1
LLC sets: 2048
LLC ways: 16
Off-chip DRAM Size: 4096 MB Channels: 1 Width: 64-bit Data Rate: 6400 MT/s
CPU 0 runs traces/spec2k17/server_026.champsimtrace.xz
.xz
BTB has LRU replacement policy
ITLB has LRU replacement policy
DTLB has LRU replacement policy
STLB has LRU replacement policy
L1I has LRU replacement policy
L1D has LRU replacement policy
Initialize SRRIP state for L2C
Initialize DRRIP state for LLC
Heartbeat CPU 0 instructions: 10000003 cycles: 2823091 heartbeat IPC: 3.54222 cumulative IPC: 3.54222 (Simulation time: 0 hr 0 min 39 sec) 
Heartbeat CPU 0 instructions: 20000001 cycles: 5640977 heartbeat IPC: 3.54876 cumulative IPC: 3.54549 (Simulation time: 0 hr 1 min 20 sec) 
Heartbeat CPU 0 instructions: 30000002 cycles: 8457361 heartbeat IPC: 3.55065 cumulative IPC: 3.54721 (Simulation time: 0 hr 1 min 59 sec) 
Heartbeat CPU 0 instructions: 40000001 cycles: 11275199 heartbeat IPC: 3.54882 cumulative IPC: 3.54761 (Simulation time: 0 hr 2 min 40 sec) 
Heartbeat CPU 0 instructions: 50000000 cycles: 14091114 heartbeat IPC: 3.55124 cumulative IPC: 3.54834 (Simulation time: 0 hr 3 min 18 sec) 

Warmup complete CPU 0 instructions: 50000004 cycles: 14091115 (Simulation time: 0 hr 3 min 18 sec) 

Heartbeat CPU 0 instructions: 60000001 cycles: 46185841 heartbeat IPC: 0.311578 cumulative IPC: 0.311578 (Simulation time: 0 hr 4 min 22 sec) 
*** Reached end of trace for Core: 0 Repeating trace: traces/spec2k17/server_026.champsimtrace.xz
Heartbeat CPU 0 instructions: 70000000 cycles: 78139042 heartbeat IPC: 0.312958 cumulative IPC: 0.312266 (Simulation time: 0 hr 5 min 19 sec) 
Heartbeat CPU 0 instructions: 80000000 cycles: 110008863 heartbeat IPC: 0.313776 cumulative IPC: 0.312768 (Simulation time: 0 hr 6 min 21 sec) 
Heartbeat CPU 0 instructions: 90000003 cycles: 141926388 heartbeat IPC: 0.313308 cumulative IPC: 0.312903 (Simulation time: 0 hr 7 min 26 sec) 
Heartbeat CPU 0 instructions: 100000000 cycles: 173886341 heartbeat IPC: 0.312891 cumulative IPC: 0.3129 (Simulation time: 0 hr 8 min 31 sec) 
Heartbeat CPU 0 instructions: 110000000 cycles: 205748021 heartbeat IPC: 0.313857 cumulative IPC: 0.313059 (Simulation time: 0 hr 9 min 33 sec) 
Heartbeat CPU 0 instructions: 120000000 cycles: 237746714 heartbeat IPC: 0.312513 cumulative IPC: 0.312981 (Simulation time: 0 hr 10 min 35 sec) 
*** Reached end of trace for Core: 0 Repeating trace: traces/spec2k17/server_026.champsimtrace.xz
Heartbeat CPU 0 instructions: 130000002 cycles: 269598999 heartbeat IPC: 0.313949 cumulative IPC: 0.313102 (Simulation time: 0 hr 11 min 39 sec) 
Heartbeat CPU 0 instructions: 140000002 cycles: 301427781 heartbeat IPC: 0.314181 cumulative IPC: 0.313221 (Simulation time: 0 hr 12 min 45 sec) 
Heartbeat CPU 0 instructions: 150000001 cycles: 333264949 heartbeat IPC: 0.314098 cumulative IPC: 0.313309 (Simulation time: 0 hr 13 min 58 sec) 
Heartbeat CPU 0 instructions: 160000001 cycles: 365085974 heartbeat IPC: 0.314258 cumulative IPC: 0.313395 (Simulation time: 0 hr 15 min 10 sec) 
Heartbeat CPU 0 instructions: 170000000 cycles: 396979281 heartbeat IPC: 0.313545 cumulative IPC: 0.313407 (Simulation time: 0 hr 16 min 26 sec) 
Heartbeat CPU 0 instructions: 180000003 cycles: 428792249 heartbeat IPC: 0.314337 cumulative IPC: 0.313479 (Simulation time: 0 hr 17 min 42 sec) 
*** Reached end of trace for Core: 0 Repeating trace: traces/spec2k17/server_026.champsimtrace.xz
Heartbeat CPU 0 instructions: 190000000 cycles: 460549824 heartbeat IPC: 0.314885 cumulative IPC: 0.313579 (Simulation time: 0 hr 19 min 2 sec) 
Heartbeat CPU 0 instructions: 200000003 cycles: 492195435 heartbeat IPC: 0.316 cumulative IPC: 0.313739 (Simulation time: 0 hr 20 min 25 sec) 
Heartbeat CPU 0 instructions: 210000000 cycles: 523860471 heartbeat IPC: 0.315806 cumulative IPC: 0.313867 (Simulation time: 0 hr 21 min 53 sec) 
Heartbeat CPU 0 instructions: 220000000 cycles: 555516604 heartbeat IPC: 0.315895 cumulative IPC: 0.313986 (Simulation time: 0 hr 23 min 20 sec) 
Heartbeat CPU 0 instructions: 230000000 cycles: 587241258 heartbeat IPC: 0.315212 cumulative IPC: 0.314054 (Simulation time: 0 hr 24 min 47 sec) 
Heartbeat CPU 0 instructions: 240000000 cycles: 618861783 heartbeat IPC: 0.31625 cumulative IPC: 0.314169 (Simulation time: 0 hr 26 min 16 sec) 
*** Reached end of trace for Core: 0 Repeating trace: traces/spec2k17/server_026.champsimtrace.xz
Heartbeat CPU 0 instructions: 250000003 cycles: 650556156 heartbeat IPC: 0.315514 cumulative IPC: 0.314236 (Simulation time: 0 hr 27 min 41 sec) 
Finished CPU 0 instructions: 200000003 cycles: 636465042 cumulative IPC: 0.314236 (Simulation time: 0 hr 27 min 41 sec) 

ChampSim completed all CPUs

Region of Interest Statistics

CPU 0 cumulative IPC: 0.314236 instructions: 200000003 cycles: 636465042
ITLB TOTAL     ACCESS:   34746985  HIT:   32735773  MISS:    2011212  HIT %:    94.2118  MISS %:    5.78816   MPKI: 10.0561
ITLB LOAD TRANSLATION ACCESS:   34746985  HIT:   32735773  MISS:    2011212  HIT %:    94.2118  MISS %:    5.78816   MPKI: 10.0561
ITLB PREFETCH  REQUESTED:          0  ISSUED:          0  USEFUL:          0  USELESS:          0
ITLB USEFUL LOAD PREFETCHES:          0 PREFETCH ISSUED TO LOWER LEVEL:          0  ACCURACY: -nan
ITLB TIMELY PREFETCHES:          0 LATE PREFETCHES: 0 DROPPED PREFETCHES: 0
ITLB PREFETCHES SAME FILL-ORIGIN LEVEL: 0 DIFFERENT FILL-ORIGIN LEVEL: 0
ITLB AVERAGE MISS LATENCY: 9.03178 cycles
ITLB RQ	ACCESS:   40929323	FORWARD:          0	MERGED:    5700862	TO_CACHE:   35228461

DTLB TOTAL     ACCESS:   46259249  HIT:   44422794  MISS:    1836455  HIT %:    96.0301  MISS %:    3.96992   MPKI: 9.18227
DTLB LOAD TRANSLATION ACCESS:   46259249  HIT:   44422794  MISS:    1836455  HIT %:    96.0301  MISS %:    3.96992   MPKI: 9.18227
DTLB PREFETCH  REQUESTED:          0  ISSUED:          0  USEFUL:          0  USELESS:          0
DTLB USEFUL LOAD PREFETCHES:          0 PREFETCH ISSUED TO LOWER LEVEL:          0  ACCURACY: -nan
DTLB TIMELY PREFETCHES:          0 LATE PREFETCHES: 0 DROPPED PREFETCHES: 0
DTLB PREFETCHES SAME FILL-ORIGIN LEVEL: 0 DIFFERENT FILL-ORIGIN LEVEL: 0
DTLB AVERAGE MISS LATENCY: 9.05387 cycles
DTLB RQ	ACCESS:   60871187	FORWARD:          0	MERGED:   14546309	TO_CACHE:   46324878

STLB TOTAL     ACCESS:    6513577  HIT:    6505607  MISS:       7970  HIT %:    99.8776  MISS %:    0.12236   MPKI: 0.03985
STLB LOAD TRANSLATION ACCESS:    3847667  HIT:    3839734  MISS:       7933  HIT %:    99.7938  MISS %:   0.206177   MPKI: 0.039665
STLB TRANSLATION FROM L1D PREFETCHER ACCESS:    2665910  HIT:    2665873  MISS:         37  HIT %:    99.9986  MISS %: 0.00138789   MPKI: 0.000185
STLB PREFETCH  REQUESTED:          0  ISSUED:          0  USEFUL:         34  USELESS:          2
STLB USEFUL LOAD PREFETCHES:         34 PREFETCH ISSUED TO LOWER LEVEL:          0  ACCURACY: inf
STLB TIMELY PREFETCHES:         34 LATE PREFETCHES: 5 DROPPED PREFETCHES: 1448
STLB PREFETCHES SAME FILL-ORIGIN LEVEL: 0 DIFFERENT FILL-ORIGIN LEVEL: 0
STLB AVERAGE MISS LATENCY: 46.7108 cycles
STLB RQ	ACCESS:    7198372	FORWARD:          0	MERGED:     683334	TO_CACHE:    6515038

STLB Hit, L1D data hit: 0
STLB Hit, L2C data hit: 0
STLB Hit, LLC data hit: 0
STLB Hit, LLC data miss: 0
STLB STLB hints to L2: 0
L1D TOTAL     ACCESS:   62117451  HIT:   58022867  MISS:    4094584  HIT %:    93.4083  MISS %:    6.59168   MPKI: 20.4729
L1D LOAD      ACCESS:   34159080  HIT:   31449071  MISS:    2710009  HIT %:    92.0665  MISS %:     7.9335   MPKI: 13.55
L1D RFO       ACCESS:   24840572  HIT:   23715006  MISS:    1125566  HIT %:    95.4688  MISS %:    4.53116   MPKI: 5.62783
L1D PREFETCH  ACCESS:    3117799  HIT:    2858790  MISS:     259009  HIT %:    91.6926  MISS %:    8.30743   MPKI: 1.29504
AGUS PREFETCH L1 MISS: 0
L1D PREFETCH  REQUESTED:    6935402  ISSUED:    6935395  USEFUL:     253035  USELESS:       5973
L1D USEFUL LOAD PREFETCHES:     253035 PREFETCH ISSUED TO LOWER LEVEL:     389732  ACCURACY: 64.9254
L1D TIMELY PREFETCHES:     253035 LATE PREFETCHES: 129498 DROPPED PREFETCHES: 1546
L1D PREFETCHES SAME FILL-ORIGIN LEVEL: 389732 DIFFERENT FILL-ORIGIN LEVEL: 0
L1D AVERAGE MISS LATENCY: 1.36907e+07 cycles
L1D RQ	ACCESS:   47417252	FORWARD:          0	MERGED:   12846008	TO_CACHE:   34275188
L1D WQ	ACCESS:   26764780	FORWARD:     300899	MERGED:     168781	TO_CACHE:   26595999
L1D PQ	ACCESS:    3584690	FORWARD:          0	MERGED:     229142	TO_CACHE:    3350705

L1D UNIQUE REGIONS ACCESSED: 0
L1D REGIONS CONFLICTS: 0
L1D Cross Page Prefetch Requests: 2583397
L1D Same Page Prefetch Requests: 1009651
L1D ROI Sum of L1D PQ occupancy: 46490639
L1D PREFETCHES PUSHED FROM L2C: 0
L1I TOTAL     ACCESS:   39432321  HIT:   28904581  MISS:   10527740  HIT %:    73.3017  MISS %:    26.6983   MPKI: 52.6387
L1I LOAD      ACCESS:   39432321  HIT:   28904581  MISS:   10527740  HIT %:    73.3017  MISS %:    26.6983   MPKI: 52.6387
L1I PREFETCH  REQUESTED:          0  ISSUED:          0  USEFUL:          0  USELESS:          0
L1I USEFUL LOAD PREFETCHES:          0 PREFETCH ISSUED TO LOWER LEVEL:          0  ACCURACY: -nan
L1I TIMELY PREFETCHES:          0 LATE PREFETCHES: 0 DROPPED PREFETCHES: 0
L1I PREFETCHES SAME FILL-ORIGIN LEVEL: 0 DIFFERENT FILL-ORIGIN LEVEL: 0
L1I AVERAGE MISS LATENCY: 16.4668 cycles
L1I RQ	ACCESS:   57882743	FORWARD:          0	MERGED:   16953420	TO_CACHE:   40929323

BTB TOTAL     ACCESS:   29988876  HIT:   17348499  MISS:   12640377  HIT %:    57.8498  MISS %:    42.1502   MPKI: 63.2019
BTB BRANCH_DIRECT_JUMP	ACCESS:    2009046  HIT:    1127352  MISS:     881694
BTB BRANCH_INDIRECT	ACCESS:   11800645  HIT:    6994352  MISS:    4806293
BTB BRANCH_CONDITIONAL	ACCESS:    7683211  HIT:    6358422  MISS:    1324789
BTB BRANCH_DIRECT_CALL	ACCESS:    3580653  HIT:    1498237  MISS:    2082416
BTB BRANCH_INDIRECT_CALL	ACCESS:     667350  HIT:     263513  MISS:     403837
BTB BRANCH_RETURN	ACCESS:    4247971  HIT:    1106623  MISS:    3141348
BTB BRANCH_OTHER ACCESS:          0  HIT:          0  MISS:          0

L2C TOTAL     ACCESS:   16601603  HIT:   15149597  MISS:    1452006  HIT %:    91.2538  MISS %:    8.74618   MPKI: 7.26003
L2C LOAD      ACCESS:   13108247  HIT:   11951502  MISS:    1156745  HIT %:    91.1754  MISS %:    8.82456   MPKI: 5.78372
L2C DATA LOAD MPKI: 1.61503
L2C INSTRUCTION LOAD MPKI: 4.16869
L2C RFO       ACCESS:    1124336  HIT:     928993  MISS:     195343  HIT %:    82.6259  MISS %:    17.3741   MPKI: 0.976715
L2C PREFETCH  ACCESS:     389732  HIT:     351103  MISS:      38629  HIT %:    90.0883  MISS %:    9.91168   MPKI: 0.193145
AGUS PREFETCH L1 MISS: 0
L2C DATA PREFETCH MPKI: 0.193145
L2C INSTRUCTION PREFETCH MPKI: 0
L2C WRITEBACK ACCESS:    1968602  HIT:    1913762  MISS:      54840  HIT %:    97.2143  MISS %:    2.78573   MPKI: 0.2742
L2C LOAD TRANSLATION ACCESS:       8354  HIT:       2783  MISS:       5571  HIT %:    33.3134  MISS %:    66.6866   MPKI: 0.027855
L2C TRANSLATION FROM L1D PREFETCHER ACCESS:       2332  HIT:       1454  MISS:        878  HIT %:    62.3499  MISS %:    37.6501   MPKI: 0.00439
L2C PREFETCH  REQUESTED:          0  ISSUED:          0  USEFUL:       6227  USELESS:      33212
L2C USEFUL LOAD PREFETCHES:       6227 PREFETCH ISSUED TO LOWER LEVEL:      38629  ACCURACY: 16.12
L2C TIMELY PREFETCHES:       6227 LATE PREFETCHES: 0 DROPPED PREFETCHES: 0
L2C PREFETCHES SAME FILL-ORIGIN LEVEL: 0 DIFFERENT FILL-ORIGIN LEVEL: 0
L2C AVERAGE MISS LATENCY: 34.7694 cycles
L2C RQ	ACCESS:   14243278	FORWARD:          0	MERGED:          0	TO_CACHE:   14243269
L2C WQ	ACCESS:    1968602	FORWARD:          9	MERGED:          0	TO_CACHE:    1968602
L2C PQ	ACCESS:     389732	FORWARD:          0	MERGED:          0	TO_CACHE:     389732

L2C Instructions Evicting Data 308154
L2C Translations Evicting Data 4536
L2C Data Evicting Data 276616
L2C Instructions Evicting Instructions 523810
L2C Translations Evicting Instructions 1638
L2C Data Evicting Instructions 276072
L2C Instructions Evicting Translations 1774
L2C Translations Evicting Translations 275
L2C Data Evicting Translations 4291
L2C Dense regions hint from L2: 0
PSCL5 TOTAL     ACCESS:       9416  HIT:       9416  MISS:          0  HIT %:        100  MISS %:          0   MPKI: 0
PSCL5 LOAD TRANSLATION ACCESS:       7928  HIT:       7928  MISS:          0  HIT %:        100  MISS %:          0   MPKI: 0
PSCL5 TRANSLATION FROM L1D PREFETCHER ACCESS:       1488  HIT:       1488  MISS:          0  HIT %:        100  MISS %:          0   MPKI: 0
PSCL5 PREFETCH  REQUESTED:          0  ISSUED:          0  USEFUL:          0  USELESS:          0
PSCL5 USEFUL LOAD PREFETCHES:          0 PREFETCH ISSUED TO LOWER LEVEL:          0  ACCURACY: -nan
PSCL5 TIMELY PREFETCHES:          0 LATE PREFETCHES: 0 DROPPED PREFETCHES: 0
PSCL5 PREFETCHES SAME FILL-ORIGIN LEVEL: 0 DIFFERENT FILL-ORIGIN LEVEL: 0

PSCL4 TOTAL     ACCESS:       9058  HIT:       9038  MISS:         20  HIT %:    99.7792  MISS %:   0.220799   MPKI: 0.0001
PSCL4 LOAD TRANSLATION ACCESS:       7680  HIT:       7660  MISS:         20  HIT %:    99.7396  MISS %:   0.260417   MPKI: 0.0001
PSCL4 TRANSLATION FROM L1D PREFETCHER ACCESS:       1378  HIT:       1378  MISS:          0  HIT %:        100  MISS %:          0   MPKI: 0
PSCL4 PREFETCH  REQUESTED:          0  ISSUED:          0  USEFUL:          0  USELESS:          0
PSCL4 USEFUL LOAD PREFETCHES:          0 PREFETCH ISSUED TO LOWER LEVEL:          0  ACCURACY: -nan
PSCL4 TIMELY PREFETCHES:          0 LATE PREFETCHES: 0 DROPPED PREFETCHES: 0
PSCL4 PREFETCHES SAME FILL-ORIGIN LEVEL: 0 DIFFERENT FILL-ORIGIN LEVEL: 0

PSCL3 TOTAL     ACCESS:       9215  HIT:       9195  MISS:         20  HIT %:     99.783  MISS %:   0.217037   MPKI: 0.0001
PSCL3 LOAD TRANSLATION ACCESS:       7807  HIT:       7787  MISS:         20  HIT %:    99.7438  MISS %:    0.25618   MPKI: 0.0001
PSCL3 TRANSLATION FROM L1D PREFETCHER ACCESS:       1408  HIT:       1408  MISS:          0  HIT %:        100  MISS %:          0   MPKI: 0
PSCL3 PREFETCH  REQUESTED:          0  ISSUED:          0  USEFUL:          0  USELESS:          0
PSCL3 USEFUL LOAD PREFETCHES:          0 PREFETCH ISSUED TO LOWER LEVEL:          0  ACCURACY: -nan
PSCL3 TIMELY PREFETCHES:          0 LATE PREFETCHES: 0 DROPPED PREFETCHES: 0
PSCL3 PREFETCHES SAME FILL-ORIGIN LEVEL: 0 DIFFERENT FILL-ORIGIN LEVEL: 0

PSCL2 TOTAL     ACCESS:       8426  HIT:       8035  MISS:        391  HIT %:    95.3596  MISS %:     4.6404   MPKI: 0.001955
PSCL2 LOAD TRANSLATION ACCESS:       7932  HIT:       7541  MISS:        391  HIT %:    95.0706  MISS %:     4.9294   MPKI: 0.001955
PSCL2 TRANSLATION FROM L1D PREFETCHER ACCESS:        494  HIT:        494  MISS:          0  HIT %:        100  MISS %:          0   MPKI: 0
PSCL2 PREFETCH  REQUESTED:          0  ISSUED:          0  USEFUL:          0  USELESS:          0
PSCL2 USEFUL LOAD PREFETCHES:          0 PREFETCH ISSUED TO LOWER LEVEL:          0  ACCURACY: -nan
PSCL2 TIMELY PREFETCHES:          0 LATE PREFETCHES: 0 DROPPED PREFETCHES: 0
PSCL2 PREFETCHES SAME FILL-ORIGIN LEVEL: 0 DIFFERENT FILL-ORIGIN LEVEL: 0

LLC TOTAL     ACCESS:    1652438  HIT:    1598717  MISS:      53721  HIT %:     96.749  MISS %:    3.25101   MPKI: 0.268605
LLC LOAD      ACCESS:    1156745  HIT:    1132835  MISS:      23910  HIT %:     97.933  MISS %:    2.06701   MPKI: 0.11955
LLC RFO       ACCESS:     195343  HIT:     166477  MISS:      28866  HIT %:    85.2229  MISS %:    14.7771   MPKI: 0.14433
LLC PREFETCH  ACCESS:      38629  HIT:      38449  MISS:        180  HIT %:     99.534  MISS %:   0.465971   MPKI: 0.0009
AGUS PREFETCH L1 MISS: 0
LLC WRITEBACK ACCESS:     255272  HIT:     254858  MISS:        414  HIT %:    99.8378  MISS %:    0.16218   MPKI: 0.00207
LLC LOAD TRANSLATION ACCESS:       5571  HIT:       5373  MISS:        198  HIT %:    96.4459  MISS %:    3.55412   MPKI: 0.00099
LLC TRANSLATION FROM L1D PREFETCHER ACCESS:        878  HIT:        725  MISS:        153  HIT %:     82.574  MISS %:     17.426   MPKI: 0.000765
LLC PREFETCH  REQUESTED:          0  ISSUED:          0  USEFUL:         62  USELESS:        135
LLC USEFUL LOAD PREFETCHES:         62 PREFETCH ISSUED TO LOWER LEVEL:        180  ACCURACY: 34.4444
LLC TIMELY PREFETCHES:         62 LATE PREFETCHES: 0 DROPPED PREFETCHES: 0
LLC PREFETCHES SAME FILL-ORIGIN LEVEL: 0 DIFFERENT FILL-ORIGIN LEVEL: 0
LLC AVERAGE MISS LATENCY: 159.321 cycles
LLC RQ	ACCESS:    1358537	FORWARD:          0	MERGED:          0	TO_CACHE:    1358537
LLC WQ	ACCESS:     255272	FORWARD:          0	MERGED:          0	TO_CACHE:     255272
LLC PQ	ACCESS:      38629	FORWARD:          0	MERGED:          0	TO_CACHE:      38629

LLC Dense regions hint to LLC: 0

RAW hits: 1413370
Loads Generated: 48830622
Loads sent to L1D: 47417252
Stores Generated: 26764751
Stores sent to L1D: 26764780
Major fault: 0 Minor fault: 2264
Allocated PAGES: 2264
Completed 
Accuracy : 93.058
Number of unique groups: 2638492

DRAM Statistics
 CHANNEL 0
 RQ ROW_BUFFER_HIT:      18960  ROW_BUFFER_MISS:      34333
 DBUS_CONGESTED:         40
 WQ ROW_BUFFER_HIT:       3365  ROW_BUFFER_MISS:      25734  FULL:          0

 AVG_CONGESTED_CYCLE: 4
 All warmup complete: 2
Channel 0 Bank busy for read cycles: 0
Channel 0 Bank busy for write cycles: 0
Channel 0
Rank 0
0banks busy for read cycles: 632112190
0banks busy for write cycles: 7109
1banks busy for read cycles: 1562944
1banks busy for write cycles: 870950
2banks busy for read cycles: 329749
2banks busy for write cycles: 189826
3banks busy for read cycles: 197234
3banks busy for write cycles: 102848
4banks busy for read cycles: 153394
4banks busy for write cycles: 79388
5banks busy for read cycles: 115082
5banks busy for write cycles: 70550
6banks busy for read cycles: 122764
6banks busy for write cycles: 64528
7banks busy for read cycles: 80926
7banks busy for write cycles: 79911
8banks busy for read cycles: 102567
8banks busy for write cycles: 223083

CPU 0 Branch Prediction Accuracy: 99.8683% MPKI: 0.231785 Average ROB Occupancy at Mispredict: 31.9361
Branch types
NOT_BRANCH: 164806500 82.4032%
BRANCH_DIRECT_JUMP: 2009046 1.00452%
BRANCH_INDIRECT: 11800645 5.90032%
BRANCH_CONDITIONAL: 12887718 6.44386%
BRANCH_DIRECT_CALL: 3580653 1.79033%
BRANCH_INDIRECT_CALL: 667350 0.333675%
BRANCH_RETURN: 4247971 2.12399%
BRANCH_OTHER: 0 0%

DRAM PAGES: 1048576
Allocated PAGES: 2264
