
*** ChampSim Multicore Out-of-Order Simulator ***

Warmup Instructions: 50000000
Simulation Instructions: 200000000
Number of CPUs: 1
LLC sets: 2048
LLC ways: 16
Off-chip DRAM Size: 4096 MB Channels: 1 Width: 64-bit Data Rate: 6400 MT/s
CPU 0 runs traces/spec2k17/server_001.champsimtrace.xz
.xz
BTB has LRU replacement policy
ITLB has LRU replacement policy
DTLB has LRU replacement policy
STLB has LRU replacement policy
L1I has LRU replacement policy
L1D has LRU replacement policy
Initialize SRRIP state for L2C
Initialize DRRIP state for LLC
Heartbeat CPU 0 instructions: 10000000 cycles: 2723383 heartbeat IPC: 3.6719 cumulative IPC: 3.6719 (Simulation time: 0 hr 0 min 48 sec) 
Heartbeat CPU 0 instructions: 20000000 cycles: 5453594 heartbeat IPC: 3.66272 cumulative IPC: 3.66731 (Simulation time: 0 hr 1 min 34 sec) 
Heartbeat CPU 0 instructions: 30000002 cycles: 8182795 heartbeat IPC: 3.66408 cumulative IPC: 3.66623 (Simulation time: 0 hr 2 min 18 sec) 
Heartbeat CPU 0 instructions: 40000001 cycles: 10917857 heartbeat IPC: 3.65622 cumulative IPC: 3.66372 (Simulation time: 0 hr 3 min 4 sec) 
Heartbeat CPU 0 instructions: 50000000 cycles: 13639721 heartbeat IPC: 3.67395 cumulative IPC: 3.66576 (Simulation time: 0 hr 3 min 45 sec) 

Warmup complete CPU 0 instructions: 50000004 cycles: 13639722 (Simulation time: 0 hr 3 min 45 sec) 

Heartbeat CPU 0 instructions: 60000000 cycles: 31137034 heartbeat IPC: 0.571516 cumulative IPC: 0.571516 (Simulation time: 0 hr 4 min 43 sec) 
Heartbeat CPU 0 instructions: 70000000 cycles: 47867347 heartbeat IPC: 0.597717 cumulative IPC: 0.584323 (Simulation time: 0 hr 5 min 41 sec) 
Heartbeat CPU 0 instructions: 80000003 cycles: 64515873 heartbeat IPC: 0.600654 cumulative IPC: 0.589667 (Simulation time: 0 hr 6 min 40 sec) 
Heartbeat CPU 0 instructions: 90000000 cycles: 81634002 heartbeat IPC: 0.584176 cumulative IPC: 0.588285 (Simulation time: 0 hr 7 min 42 sec) 
Heartbeat CPU 0 instructions: 100000000 cycles: 98178726 heartbeat IPC: 0.604422 cumulative IPC: 0.591443 (Simulation time: 0 hr 8 min 43 sec) 
*** Reached end of trace for Core: 0 Repeating trace: traces/spec2k17/server_001.champsimtrace.xz
Heartbeat CPU 0 instructions: 110000000 cycles: 115407820 heartbeat IPC: 0.580414 cumulative IPC: 0.589576 (Simulation time: 0 hr 9 min 55 sec) 
Heartbeat CPU 0 instructions: 120000000 cycles: 131123515 heartbeat IPC: 0.636307 cumulative IPC: 0.595827 (Simulation time: 0 hr 11 min 16 sec) 
Heartbeat CPU 0 instructions: 130000002 cycles: 148090304 heartbeat IPC: 0.589387 cumulative IPC: 0.595014 (Simulation time: 0 hr 12 min 54 sec) 
Heartbeat CPU 0 instructions: 140000002 cycles: 165521914 heartbeat IPC: 0.57367 cumulative IPC: 0.592565 (Simulation time: 0 hr 14 min 49 sec) 
Heartbeat CPU 0 instructions: 150000001 cycles: 182889312 heartbeat IPC: 0.575791 cumulative IPC: 0.590843 (Simulation time: 0 hr 17 min 28 sec) 
Heartbeat CPU 0 instructions: 160000000 cycles: 199072721 heartbeat IPC: 0.617917 cumulative IPC: 0.593206 (Simulation time: 0 hr 20 min 36 sec) 
Heartbeat CPU 0 instructions: 170000000 cycles: 215902021 heartbeat IPC: 0.594202 cumulative IPC: 0.593289 (Simulation time: 0 hr 24 min 2 sec) 
Heartbeat CPU 0 instructions: 180000002 cycles: 232587418 heartbeat IPC: 0.599327 cumulative IPC: 0.593749 (Simulation time: 0 hr 27 min 47 sec) 
Heartbeat CPU 0 instructions: 190000003 cycles: 249117831 heartbeat IPC: 0.604946 cumulative IPC: 0.594535 (Simulation time: 0 hr 34 min 13 sec) 
Heartbeat CPU 0 instructions: 200000001 cycles: 265610518 heartbeat IPC: 0.606329 cumulative IPC: 0.595307 (Simulation time: 0 hr 39 min 51 sec) 
*** Reached end of trace for Core: 0 Repeating trace: traces/spec2k17/server_001.champsimtrace.xz
Heartbeat CPU 0 instructions: 210000000 cycles: 282509902 heartbeat IPC: 0.591738 cumulative IPC: 0.595083 (Simulation time: 0 hr 44 min 44 sec) 
Heartbeat CPU 0 instructions: 220000000 cycles: 298886385 heartbeat IPC: 0.610632 cumulative IPC: 0.595975 (Simulation time: 0 hr 48 min 53 sec) 
Heartbeat CPU 0 instructions: 230000002 cycles: 315249424 heartbeat IPC: 0.611134 cumulative IPC: 0.596798 (Simulation time: 0 hr 50 min 52 sec) 
Heartbeat CPU 0 instructions: 240000002 cycles: 332971365 heartbeat IPC: 0.564272 cumulative IPC: 0.594993 (Simulation time: 0 hr 53 min 23 sec) 
Heartbeat CPU 0 instructions: 250000002 cycles: 349336395 heartbeat IPC: 0.611059 cumulative IPC: 0.595776 (Simulation time: 0 hr 54 min 47 sec) 
Finished CPU 0 instructions: 200000003 cycles: 335696679 cumulative IPC: 0.595776 (Simulation time: 0 hr 54 min 47 sec) 

ChampSim completed all CPUs

Region of Interest Statistics

CPU 0 cumulative IPC: 0.595776 instructions: 200000003 cycles: 335696679
ITLB TOTAL     ACCESS:   29901673  HIT:   29484353  MISS:     417320  HIT %:    98.6044  MISS %:    1.39564   MPKI: 2.0866
ITLB LOAD TRANSLATION ACCESS:   29901673  HIT:   29484353  MISS:     417320  HIT %:    98.6044  MISS %:    1.39564   MPKI: 2.0866
ITLB PREFETCH  REQUESTED:          0  ISSUED:          0  USEFUL:          0  USELESS:          0
ITLB USEFUL LOAD PREFETCHES:          0 PREFETCH ISSUED TO LOWER LEVEL:          0  ACCURACY: -nan
ITLB TIMELY PREFETCHES:          0 LATE PREFETCHES: 0 DROPPED PREFETCHES: 0
ITLB PREFETCHES SAME FILL-ORIGIN LEVEL: 0 DIFFERENT FILL-ORIGIN LEVEL: 0
ITLB AVERAGE MISS LATENCY: 12.5973 cycles
ITLB RQ	ACCESS:   36669888	FORWARD:          0	MERGED:    6644084	TO_CACHE:   30025804

DTLB TOTAL     ACCESS:   36753327  HIT:   35573604  MISS:    1179723  HIT %:    96.7902  MISS %:    3.20984   MPKI: 5.89861
DTLB LOAD TRANSLATION ACCESS:   36753327  HIT:   35573604  MISS:    1179723  HIT %:    96.7902  MISS %:    3.20984   MPKI: 5.89861
DTLB PREFETCH  REQUESTED:          0  ISSUED:          0  USEFUL:          0  USELESS:          0
DTLB USEFUL LOAD PREFETCHES:          0 PREFETCH ISSUED TO LOWER LEVEL:          0  ACCURACY: -nan
DTLB TIMELY PREFETCHES:          0 LATE PREFETCHES: 0 DROPPED PREFETCHES: 0
DTLB PREFETCHES SAME FILL-ORIGIN LEVEL: 0 DIFFERENT FILL-ORIGIN LEVEL: 0
DTLB AVERAGE MISS LATENCY: 18.0394 cycles
DTLB RQ	ACCESS:   46754205	FORWARD:          0	MERGED:    9938035	TO_CACHE:   36816170

STLB TOTAL     ACCESS:    2111221  HIT:    1993495  MISS:     117726  HIT %:    94.4238  MISS %:     5.5762   MPKI: 0.58863
STLB LOAD TRANSLATION ACCESS:    1597043  HIT:    1479385  MISS:     117658  HIT %:    92.6328  MISS %:    7.36724   MPKI: 0.58829
STLB TRANSLATION FROM L1D PREFETCHER ACCESS:     514178  HIT:     514110  MISS:         68  HIT %:    99.9868  MISS %:   0.013225   MPKI: 0.00034
STLB PREFETCH  REQUESTED:          0  ISSUED:          0  USEFUL:         59  USELESS:          9
STLB USEFUL LOAD PREFETCHES:         59 PREFETCH ISSUED TO LOWER LEVEL:          0  ACCURACY: inf
STLB TIMELY PREFETCHES:         59 LATE PREFETCHES: 9 DROPPED PREFETCHES: 113
STLB PREFETCHES SAME FILL-ORIGIN LEVEL: 0 DIFFERENT FILL-ORIGIN LEVEL: 0
STLB AVERAGE MISS LATENCY: 103.526 cycles
STLB RQ	ACCESS:    2235086	FORWARD:          0	MERGED:     123737	TO_CACHE:    2111349

STLB Hit, L1D data hit: 0
STLB Hit, L2C data hit: 0
STLB Hit, LLC data hit: 0
STLB Hit, LLC data miss: 0
STLB STLB hints to L2: 0
L1D TOTAL     ACCESS:   45683067  HIT:   44075442  MISS:    1607625  HIT %:    96.4809  MISS %:    3.51908   MPKI: 8.03812
L1D LOAD      ACCESS:   25395587  HIT:   24178579  MISS:    1217008  HIT %:    95.2078  MISS %:     4.7922   MPKI: 6.08504
L1D RFO       ACCESS:   19660088  HIT:   19270551  MISS:     389537  HIT %:    98.0186  MISS %:    1.98136   MPKI: 1.94768
L1D PREFETCH  ACCESS:     627392  HIT:     626312  MISS:       1080  HIT %:    99.8279  MISS %:   0.172141   MPKI: 0.0054
AGUS PREFETCH L1 MISS: 0
L1D PREFETCH  REQUESTED:    1307127  ISSUED:    1307127  USEFUL:        722  USELESS:        358
L1D USEFUL LOAD PREFETCHES:        722 PREFETCH ISSUED TO LOWER LEVEL:       3917  ACCURACY: 18.4325
L1D TIMELY PREFETCHES:        722 LATE PREFETCHES: 2837 DROPPED PREFETCHES: 129
L1D PREFETCHES SAME FILL-ORIGIN LEVEL: 3917 DIFFERENT FILL-ORIGIN LEVEL: 0
L1D AVERAGE MISS LATENCY: 296677 cycles
L1D RQ	ACCESS:   41390584	FORWARD:          0	MERGED:   15493589	TO_CACHE:   25666507
L1D WQ	ACCESS:   21428311	FORWARD:     236285	MERGED:     340613	TO_CACHE:   21087698
L1D PQ	ACCESS:     669084	FORWARD:          0	MERGED:      25244	TO_CACHE:     638043

L1D UNIQUE REGIONS ACCESSED: 0
L1D REGIONS CONFLICTS: 0
L1D Cross Page Prefetch Requests: 547879
L1D Same Page Prefetch Requests: 132953
L1D ROI Sum of L1D PQ occupancy: 8866148
L1D PREFETCHES PUSHED FROM L2C: 0
L1I TOTAL     ACCESS:   35819357  HIT:   33876584  MISS:    1942773  HIT %:    94.5762  MISS %:    5.42381   MPKI: 9.71386
L1I LOAD      ACCESS:   35819357  HIT:   33876584  MISS:    1942773  HIT %:    94.5762  MISS %:    5.42381   MPKI: 9.71386
L1I PREFETCH  REQUESTED:          0  ISSUED:          0  USEFUL:          0  USELESS:          0
L1I USEFUL LOAD PREFETCHES:          0 PREFETCH ISSUED TO LOWER LEVEL:          0  ACCURACY: -nan
L1I TIMELY PREFETCHES:          0 LATE PREFETCHES: 0 DROPPED PREFETCHES: 0
L1I PREFETCHES SAME FILL-ORIGIN LEVEL: 0 DIFFERENT FILL-ORIGIN LEVEL: 0
L1I AVERAGE MISS LATENCY: 25.7294 cycles
L1I RQ	ACCESS:   54948513	FORWARD:          0	MERGED:   18278625	TO_CACHE:   36669888

BTB TOTAL     ACCESS:   19565792  HIT:   17841636  MISS:    1724156  HIT %:    91.1879  MISS %:    8.81209   MPKI: 8.62078
BTB BRANCH_DIRECT_JUMP	ACCESS:    1340351  HIT:    1290273  MISS:      50078
BTB BRANCH_INDIRECT	ACCESS:    8225897  HIT:    7338608  MISS:     887289
BTB BRANCH_CONDITIONAL	ACCESS:    5257195  HIT:    5175329  MISS:      81866
BTB BRANCH_DIRECT_CALL	ACCESS:    2229321  HIT:    2140579  MISS:      88742
BTB BRANCH_INDIRECT_CALL	ACCESS:     141641  HIT:     131666  MISS:       9975
BTB BRANCH_RETURN	ACCESS:    2371387  HIT:    1765181  MISS:     606206
BTB BRANCH_OTHER ACCESS:          0  HIT:          0  MISS:          0

L2C TOTAL     ACCESS:    4499711  HIT:    2792019  MISS:    1707692  HIT %:    62.0489  MISS %:    37.9511   MPKI: 8.53846
L2C LOAD      ACCESS:    3156937  HIT:    1881387  MISS:    1275550  HIT %:    59.5953  MISS %:    40.4047   MPKI: 6.37775
L2C DATA LOAD MPKI: 3.78999
L2C INSTRUCTION LOAD MPKI: 2.58775
L2C RFO       ACCESS:     389535  HIT:      65667  MISS:     323868  HIT %:    16.8578  MISS %:    83.1422   MPKI: 1.61934
L2C PREFETCH  ACCESS:       3917  HIT:       3255  MISS:        662  HIT %:    83.0993  MISS %:    16.9007   MPKI: 0.00331
AGUS PREFETCH L1 MISS: 0
L2C DATA PREFETCH MPKI: 0.00331
L2C INSTRUCTION PREFETCH MPKI: 0
L2C WRITEBACK ACCESS:     798917  HIT:     772744  MISS:      26173  HIT %:    96.7239  MISS %:    3.27606   MPKI: 0.130865
L2C LOAD TRANSLATION ACCESS:     150104  HIT:      68787  MISS:      81317  HIT %:    45.8262  MISS %:    54.1738   MPKI: 0.406585
L2C TRANSLATION FROM L1D PREFETCHER ACCESS:        301  HIT:        179  MISS:        122  HIT %:    59.4684  MISS %:    40.5316   MPKI: 0.00061
L2C PREFETCH  REQUESTED:          0  ISSUED:          0  USEFUL:        185  USELESS:        597
L2C USEFUL LOAD PREFETCHES:        185 PREFETCH ISSUED TO LOWER LEVEL:        662  ACCURACY: 27.9456
L2C TIMELY PREFETCHES:        185 LATE PREFETCHES: 0 DROPPED PREFETCHES: 0
L2C PREFETCHES SAME FILL-ORIGIN LEVEL: 0 DIFFERENT FILL-ORIGIN LEVEL: 0
L2C AVERAGE MISS LATENCY: 127.485 cycles
L2C RQ	ACCESS:    3696886	FORWARD:          0	MERGED:          0	TO_CACHE:    3696877
L2C WQ	ACCESS:     798917	FORWARD:          9	MERGED:          0	TO_CACHE:     798917
L2C PQ	ACCESS:       3917	FORWARD:          0	MERGED:          0	TO_CACHE:       3917

L2C Instructions Evicting Data 332593
L2C Translations Evicting Data 51939
L2C Data Evicting Data 708829
L2C Instructions Evicting Instructions 161478
L2C Translations Evicting Instructions 25646
L2C Data Evicting Instructions 320756
L2C Instructions Evicting Translations 23480
L2C Translations Evicting Translations 3854
L2C Data Evicting Translations 52944
L2C Dense regions hint from L2: 0
PSCL5 TOTAL     ACCESS:     117839  HIT:     117839  MISS:          0  HIT %:        100  MISS %:          0   MPKI: 0
PSCL5 LOAD TRANSLATION ACCESS:     117649  HIT:     117649  MISS:          0  HIT %:        100  MISS %:          0   MPKI: 0
PSCL5 TRANSLATION FROM L1D PREFETCHER ACCESS:        190  HIT:        190  MISS:          0  HIT %:        100  MISS %:          0   MPKI: 0
PSCL5 PREFETCH  REQUESTED:          0  ISSUED:          0  USEFUL:          0  USELESS:          0
PSCL5 USEFUL LOAD PREFETCHES:          0 PREFETCH ISSUED TO LOWER LEVEL:          0  ACCURACY: -nan
PSCL5 TIMELY PREFETCHES:          0 LATE PREFETCHES: 0 DROPPED PREFETCHES: 0
PSCL5 PREFETCHES SAME FILL-ORIGIN LEVEL: 0 DIFFERENT FILL-ORIGIN LEVEL: 0

PSCL4 TOTAL     ACCESS:     115562  HIT:     115237  MISS:        325  HIT %:    99.7188  MISS %:   0.281234   MPKI: 0.001625
PSCL4 LOAD TRANSLATION ACCESS:     115384  HIT:     115059  MISS:        325  HIT %:    99.7183  MISS %:   0.281668   MPKI: 0.001625
PSCL4 TRANSLATION FROM L1D PREFETCHER ACCESS:        178  HIT:        178  MISS:          0  HIT %:        100  MISS %:          0   MPKI: 0
PSCL4 PREFETCH  REQUESTED:          0  ISSUED:          0  USEFUL:          0  USELESS:          0
PSCL4 USEFUL LOAD PREFETCHES:          0 PREFETCH ISSUED TO LOWER LEVEL:          0  ACCURACY: -nan
PSCL4 TIMELY PREFETCHES:          0 LATE PREFETCHES: 0 DROPPED PREFETCHES: 0
PSCL4 PREFETCHES SAME FILL-ORIGIN LEVEL: 0 DIFFERENT FILL-ORIGIN LEVEL: 0

PSCL3 TOTAL     ACCESS:     117495  HIT:     117170  MISS:        325  HIT %:    99.7234  MISS %:   0.276608   MPKI: 0.001625
PSCL3 LOAD TRANSLATION ACCESS:     117315  HIT:     116990  MISS:        325  HIT %:     99.723  MISS %:   0.277032   MPKI: 0.001625
PSCL3 TRANSLATION FROM L1D PREFETCHER ACCESS:        180  HIT:        180  MISS:          0  HIT %:        100  MISS %:          0   MPKI: 0
PSCL3 PREFETCH  REQUESTED:          0  ISSUED:          0  USEFUL:          0  USELESS:          0
PSCL3 USEFUL LOAD PREFETCHES:          0 PREFETCH ISSUED TO LOWER LEVEL:          0  ACCURACY: -nan
PSCL3 TIMELY PREFETCHES:          0 LATE PREFETCHES: 0 DROPPED PREFETCHES: 0
PSCL3 PREFETCHES SAME FILL-ORIGIN LEVEL: 0 DIFFERENT FILL-ORIGIN LEVEL: 0

PSCL2 TOTAL     ACCESS:     117734  HIT:      85854  MISS:      31880  HIT %:     72.922  MISS %:     27.078   MPKI: 0.1594
PSCL2 LOAD TRANSLATION ACCESS:     117709  HIT:      85829  MISS:      31880  HIT %:    72.9163  MISS %:    27.0837   MPKI: 0.1594
PSCL2 TRANSLATION FROM L1D PREFETCHER ACCESS:         25  HIT:         25  MISS:          0  HIT %:        100  MISS %:          0   MPKI: 0
PSCL2 PREFETCH  REQUESTED:          0  ISSUED:          0  USEFUL:          0  USELESS:          0
PSCL2 USEFUL LOAD PREFETCHES:          0 PREFETCH ISSUED TO LOWER LEVEL:          0  ACCURACY: -nan
PSCL2 TIMELY PREFETCHES:          0 LATE PREFETCHES: 0 DROPPED PREFETCHES: 0
PSCL2 PREFETCHES SAME FILL-ORIGIN LEVEL: 0 DIFFERENT FILL-ORIGIN LEVEL: 0

LLC TOTAL     ACCESS:    2333652  HIT:    1451044  MISS:     882608  HIT %:    62.1791  MISS %:    37.8209   MPKI: 4.41304
LLC LOAD      ACCESS:    1275550  HIT:     755042  MISS:     520508  HIT %:    59.1934  MISS %:    40.8066   MPKI: 2.60254
LLC RFO       ACCESS:     323868  HIT:      23726  MISS:     300142  HIT %:    7.32582  MISS %:    92.6742   MPKI: 1.50071
LLC PREFETCH  ACCESS:        662  HIT:        550  MISS:        112  HIT %:    83.0816  MISS %:    16.9184   MPKI: 0.00056
AGUS PREFETCH L1 MISS: 0
LLC WRITEBACK ACCESS:     652133  HIT:     620819  MISS:      31314  HIT %:    95.1982  MISS %:    4.80178   MPKI: 0.15657
LLC LOAD TRANSLATION ACCESS:      81317  HIT:      50810  MISS:      30507  HIT %:    62.4839  MISS %:    37.5161   MPKI: 0.152535
LLC TRANSLATION FROM L1D PREFETCHER ACCESS:        122  HIT:         97  MISS:         25  HIT %:    79.5082  MISS %:    20.4918   MPKI: 0.000125
LLC PREFETCH  REQUESTED:          0  ISSUED:          0  USEFUL:         37  USELESS:         97
LLC USEFUL LOAD PREFETCHES:         37 PREFETCH ISSUED TO LOWER LEVEL:        112  ACCURACY: 33.0357
LLC TIMELY PREFETCHES:         37 LATE PREFETCHES: 0 DROPPED PREFETCHES: 0
LLC PREFETCHES SAME FILL-ORIGIN LEVEL: 0 DIFFERENT FILL-ORIGIN LEVEL: 0
LLC AVERAGE MISS LATENCY: 189.238 cycles
LLC RQ	ACCESS:    1680857	FORWARD:          0	MERGED:          0	TO_CACHE:    1680857
LLC WQ	ACCESS:     652133	FORWARD:          0	MERGED:          0	TO_CACHE:     652133
LLC PQ	ACCESS:        662	FORWARD:          0	MERGED:          0	TO_CACHE:        662

LLC Dense regions hint to LLC: 0

RAW hits: 4174946
Loads Generated: 45565530
Loads sent to L1D: 41390584
Stores Generated: 21428291
Stores sent to L1D: 21428311
Major fault: 0 Minor fault: 17224
Allocated PAGES: 17224
Completed 
Accuracy : 87.4736
Number of unique groups: 8103712

DRAM Statistics
 CHANNEL 0
 RQ ROW_BUFFER_HIT:     222938  ROW_BUFFER_MISS:     628352
 DBUS_CONGESTED:        375
 WQ ROW_BUFFER_HIT:     100222  ROW_BUFFER_MISS:     494111  FULL:          0

 AVG_CONGESTED_CYCLE: 5
 All warmup complete: 2
Channel 0 Bank busy for read cycles: 0
Channel 0 Bank busy for write cycles: 0
Channel 0
Rank 0
0banks busy for read cycles: 204548025
0banks busy for write cycles: 261735
1banks busy for read cycles: 58643439
1banks busy for write cycles: 35633277
2banks busy for read cycles: 12368499
2banks busy for write cycles: 12340813
3banks busy for read cycles: 732375
3banks busy for write cycles: 3084057
4banks busy for read cycles: 180123
4banks busy for write cycles: 1191740
5banks busy for read cycles: 132254
5banks busy for write cycles: 560391
6banks busy for read cycles: 131135
6banks busy for write cycles: 293583
7banks busy for read cycles: 252118
7banks busy for write cycles: 352043
8banks busy for read cycles: 2022412
8banks busy for write cycles: 2968661

CPU 0 Branch Prediction Accuracy: 99.7678% MPKI: 0.38212 Average ROB Occupancy at Mispredict: 62.3873
Branch types
NOT_BRANCH: 167088784 83.5444%
BRANCH_DIRECT_JUMP: 1340351 0.670175%
BRANCH_INDIRECT: 8225897 4.11295%
BRANCH_CONDITIONAL: 18602253 9.30113%
BRANCH_DIRECT_CALL: 2229321 1.11466%
BRANCH_INDIRECT_CALL: 141641 0.0708205%
BRANCH_RETURN: 2371387 1.18569%
BRANCH_OTHER: 0 0%

DRAM PAGES: 1048576
Allocated PAGES: 17224
