
*** ChampSim Multicore Out-of-Order Simulator ***

Warmup Instructions: 50000000
Simulation Instructions: 200000000
Number of CPUs: 1
LLC sets: 2048
LLC ways: 16
Off-chip DRAM Size: 4096 MB Channels: 1 Width: 64-bit Data Rate: 6400 MT/s
CPU 0 runs traces/spec2k17/server_028.champsimtrace.xz
.xz
BTB has LRU replacement policy
ITLB has LRU replacement policy
DTLB has LRU replacement policy
STLB has LRU replacement policy
L1I has LRU replacement policy
L1D has LRU replacement policy
Initialize SRRIP state for L2C
Initialize DRRIP state for LLC
Heartbeat CPU 0 instructions: 10000001 cycles: 2844700 heartbeat IPC: 3.51531 cumulative IPC: 3.51531 (Simulation time: 0 hr 0 min 41 sec) 
Heartbeat CPU 0 instructions: 20000002 cycles: 5678672 heartbeat IPC: 3.52862 cumulative IPC: 3.52195 (Simulation time: 0 hr 1 min 21 sec) 
Heartbeat CPU 0 instructions: 30000002 cycles: 8512806 heartbeat IPC: 3.52841 cumulative IPC: 3.5241 (Simulation time: 0 hr 2 min 0 sec) 
Heartbeat CPU 0 instructions: 40000001 cycles: 11348185 heartbeat IPC: 3.52687 cumulative IPC: 3.52479 (Simulation time: 0 hr 2 min 41 sec) 
Heartbeat CPU 0 instructions: 50000003 cycles: 14185134 heartbeat IPC: 3.52491 cumulative IPC: 3.52482 (Simulation time: 0 hr 3 min 23 sec) 

Warmup complete CPU 0 instructions: 50000003 cycles: 14185134 (Simulation time: 0 hr 3 min 23 sec) 

Heartbeat CPU 0 instructions: 60000000 cycles: 46489672 heartbeat IPC: 0.309554 cumulative IPC: 0.309554 (Simulation time: 0 hr 4 min 29 sec) 
Heartbeat CPU 0 instructions: 70000000 cycles: 78899284 heartbeat IPC: 0.30855 cumulative IPC: 0.309051 (Simulation time: 0 hr 5 min 42 sec) 
Heartbeat CPU 0 instructions: 80000000 cycles: 111357411 heartbeat IPC: 0.308089 cumulative IPC: 0.30873 (Simulation time: 0 hr 6 min 51 sec) 
*** Reached end of trace for Core: 0 Repeating trace: traces/spec2k17/server_028.champsimtrace.xz
Heartbeat CPU 0 instructions: 90000001 cycles: 143502013 heartbeat IPC: 0.311094 cumulative IPC: 0.309318 (Simulation time: 0 hr 8 min 1 sec) 
Heartbeat CPU 0 instructions: 100000001 cycles: 175515843 heartbeat IPC: 0.312365 cumulative IPC: 0.309922 (Simulation time: 0 hr 9 min 11 sec) 
Heartbeat CPU 0 instructions: 110000000 cycles: 207835298 heartbeat IPC: 0.309411 cumulative IPC: 0.309837 (Simulation time: 0 hr 10 min 21 sec) 
Heartbeat CPU 0 instructions: 120000003 cycles: 239892569 heartbeat IPC: 0.311942 cumulative IPC: 0.310136 (Simulation time: 0 hr 11 min 33 sec) 
Heartbeat CPU 0 instructions: 130000002 cycles: 272162612 heartbeat IPC: 0.309885 cumulative IPC: 0.310105 (Simulation time: 0 hr 12 min 45 sec) 
Heartbeat CPU 0 instructions: 140000001 cycles: 304243921 heartbeat IPC: 0.311708 cumulative IPC: 0.310282 (Simulation time: 0 hr 14 min 0 sec) 
Heartbeat CPU 0 instructions: 150000002 cycles: 336039628 heartbeat IPC: 0.314508 cumulative IPC: 0.310699 (Simulation time: 0 hr 15 min 13 sec) 
Heartbeat CPU 0 instructions: 160000000 cycles: 367884507 heartbeat IPC: 0.314022 cumulative IPC: 0.310999 (Simulation time: 0 hr 16 min 26 sec) 
Heartbeat CPU 0 instructions: 170000001 cycles: 399419235 heartbeat IPC: 0.317111 cumulative IPC: 0.311499 (Simulation time: 0 hr 17 min 39 sec) 
*** Reached end of trace for Core: 0 Repeating trace: traces/spec2k17/server_028.champsimtrace.xz
Heartbeat CPU 0 instructions: 180000002 cycles: 431124337 heartbeat IPC: 0.315407 cumulative IPC: 0.311796 (Simulation time: 0 hr 18 min 55 sec) 
Heartbeat CPU 0 instructions: 190000000 cycles: 462783819 heartbeat IPC: 0.315861 cumulative IPC: 0.312083 (Simulation time: 0 hr 20 min 5 sec) 
Heartbeat CPU 0 instructions: 200000001 cycles: 494462672 heartbeat IPC: 0.315668 cumulative IPC: 0.312319 (Simulation time: 0 hr 21 min 17 sec) 
Heartbeat CPU 0 instructions: 210000002 cycles: 526233294 heartbeat IPC: 0.314756 cumulative IPC: 0.312471 (Simulation time: 0 hr 22 min 30 sec) 
Heartbeat CPU 0 instructions: 220000000 cycles: 558086930 heartbeat IPC: 0.313936 cumulative IPC: 0.312556 (Simulation time: 0 hr 23 min 42 sec) 
Heartbeat CPU 0 instructions: 230000000 cycles: 589725371 heartbeat IPC: 0.316071 cumulative IPC: 0.31275 (Simulation time: 0 hr 24 min 54 sec) 
Heartbeat CPU 0 instructions: 240000000 cycles: 621404458 heartbeat IPC: 0.315666 cumulative IPC: 0.312902 (Simulation time: 0 hr 26 min 5 sec) 
Heartbeat CPU 0 instructions: 250000000 cycles: 653200769 heartbeat IPC: 0.314502 cumulative IPC: 0.312981 (Simulation time: 0 hr 27 min 14 sec) 
Finished CPU 0 instructions: 200000003 cycles: 639015646 cumulative IPC: 0.312981 (Simulation time: 0 hr 27 min 14 sec) 

ChampSim completed all CPUs

Region of Interest Statistics

CPU 0 cumulative IPC: 0.312981 instructions: 200000003 cycles: 639015646
ITLB TOTAL     ACCESS:   35604107  HIT:   33414900  MISS:    2189207  HIT %:    93.8513  MISS %:    6.14875   MPKI: 10.946
ITLB LOAD TRANSLATION ACCESS:   35604107  HIT:   33414900  MISS:    2189207  HIT %:    93.8513  MISS %:    6.14875   MPKI: 10.946
ITLB PREFETCH  REQUESTED:          0  ISSUED:          0  USEFUL:          0  USELESS:          0
ITLB USEFUL LOAD PREFETCHES:          0 PREFETCH ISSUED TO LOWER LEVEL:          0  ACCURACY: -nan
ITLB TIMELY PREFETCHES:          0 LATE PREFETCHES: 0 DROPPED PREFETCHES: 0
ITLB PREFETCHES SAME FILL-ORIGIN LEVEL: 0 DIFFERENT FILL-ORIGIN LEVEL: 0
ITLB AVERAGE MISS LATENCY: 9.29518 cycles
ITLB RQ	ACCESS:   41779134	FORWARD:          0	MERGED:    5649358	TO_CACHE:   36129776

DTLB TOTAL     ACCESS:   45108252  HIT:   43026060  MISS:    2082192  HIT %:     95.384  MISS %:    4.61599   MPKI: 10.411
DTLB LOAD TRANSLATION ACCESS:   45108252  HIT:   43026060  MISS:    2082192  HIT %:     95.384  MISS %:    4.61599   MPKI: 10.411
DTLB PREFETCH  REQUESTED:          0  ISSUED:          0  USEFUL:          0  USELESS:          0
DTLB USEFUL LOAD PREFETCHES:          0 PREFETCH ISSUED TO LOWER LEVEL:          0  ACCURACY: -nan
DTLB TIMELY PREFETCHES:          0 LATE PREFETCHES: 0 DROPPED PREFETCHES: 0
DTLB PREFETCHES SAME FILL-ORIGIN LEVEL: 0 DIFFERENT FILL-ORIGIN LEVEL: 0
DTLB AVERAGE MISS LATENCY: 10.0824 cycles
DTLB RQ	ACCESS:   59707380	FORWARD:          0	MERGED:   14547347	TO_CACHE:   45160033

STLB TOTAL     ACCESS:   11820228  HIT:   11741795  MISS:      78433  HIT %:    99.3365  MISS %:   0.663549   MPKI: 0.392165
STLB LOAD TRANSLATION ACCESS:    4271399  HIT:    4196370  MISS:      75029  HIT %:    98.2435  MISS %:    1.75654   MPKI: 0.375145
STLB TRANSLATION FROM L1D PREFETCHER ACCESS:    7548829  HIT:    7545425  MISS:       3404  HIT %:    99.9549  MISS %:  0.0450931   MPKI: 0.01702
STLB PREFETCH  REQUESTED:          0  ISSUED:          0  USEFUL:       3384  USELESS:         20
STLB USEFUL LOAD PREFETCHES:       3384 PREFETCH ISSUED TO LOWER LEVEL:          0  ACCURACY: inf
STLB TIMELY PREFETCHES:       3384 LATE PREFETCHES: 866 DROPPED PREFETCHES: 6255
STLB PREFETCHES SAME FILL-ORIGIN LEVEL: 0 DIFFERENT FILL-ORIGIN LEVEL: 0
STLB AVERAGE MISS LATENCY: 46.1386 cycles
STLB RQ	ACCESS:   14131932	FORWARD:          0	MERGED:    2303183	TO_CACHE:   11828749

STLB Hit, L1D data hit: 0
STLB Hit, L2C data hit: 0
STLB Hit, LLC data hit: 0
STLB Hit, LLC data miss: 0
STLB STLB hints to L2: 0
L1D TOTAL     ACCESS:   66873199  HIT:   61286164  MISS:    5587035  HIT %:    91.6453  MISS %:    8.35467   MPKI: 27.9352
L1D LOAD      ACCESS:   33514682  HIT:   30067963  MISS:    3446719  HIT %:    89.7158  MISS %:    10.2842   MPKI: 17.2336
L1D RFO       ACCESS:   24327781  HIT:   23144324  MISS:    1183457  HIT %:    95.1354  MISS %:    4.86463   MPKI: 5.91728
L1D PREFETCH  ACCESS:    9030736  HIT:    8073877  MISS:     956859  HIT %:    89.4044  MISS %:    10.5956   MPKI: 4.78429
AGUS PREFETCH L1 MISS: 0
L1D PREFETCH  REQUESTED:   20474725  ISSUED:   20474722  USEFUL:     939110  USELESS:      17751
L1D USEFUL LOAD PREFETCHES:     939110 PREFETCH ISSUED TO LOWER LEVEL:    1424902  ACCURACY: 65.907
L1D TIMELY PREFETCHES:     939110 LATE PREFETCHES: 464063 DROPPED PREFETCHES: 6310
L1D PREFETCHES SAME FILL-ORIGIN LEVEL: 1424902 DIFFERENT FILL-ORIGIN LEVEL: 0
L1D AVERAGE MISS LATENCY: 3.33939e+07 cycles
L1D RQ	ACCESS:   46068249	FORWARD:          0	MERGED:   12123631	TO_CACHE:   33630763
L1D WQ	ACCESS:   26217180	FORWARD:     333252	MERGED:     140563	TO_CACHE:   26076617
L1D PQ	ACCESS:   10614189	FORWARD:          0	MERGED:     734259	TO_CACHE:    9860533

L1D UNIQUE REGIONS ACCESSED: 0
L1D REGIONS CONFLICTS: 0
L1D Cross Page Prefetch Requests: 7299467
L1D Same Page Prefetch Requests: 3584791
L1D ROI Sum of L1D PQ occupancy: 136518912
L1D PREFETCHES PUSHED FROM L2C: 0
L1I TOTAL     ACCESS:   40143396  HIT:   29059696  MISS:   11083700  HIT %:    72.3897  MISS %:    27.6103   MPKI: 55.4185
L1I LOAD      ACCESS:   40143396  HIT:   29059696  MISS:   11083700  HIT %:    72.3897  MISS %:    27.6103   MPKI: 55.4185
L1I PREFETCH  REQUESTED:          0  ISSUED:          0  USEFUL:          0  USELESS:          0
L1I USEFUL LOAD PREFETCHES:          0 PREFETCH ISSUED TO LOWER LEVEL:          0  ACCURACY: -nan
L1I TIMELY PREFETCHES:          0 LATE PREFETCHES: 0 DROPPED PREFETCHES: 0
L1I PREFETCHES SAME FILL-ORIGIN LEVEL: 0 DIFFERENT FILL-ORIGIN LEVEL: 0
L1I AVERAGE MISS LATENCY: 15.5251 cycles
L1I RQ	ACCESS:   58373885	FORWARD:          0	MERGED:   16594751	TO_CACHE:   41779134

BTB TOTAL     ACCESS:   30542458  HIT:   18336623  MISS:   12205835  HIT %:    60.0365  MISS %:    39.9635   MPKI: 61.0292
BTB BRANCH_DIRECT_JUMP	ACCESS:    2010403  HIT:    1225655  MISS:     784748
BTB BRANCH_INDIRECT	ACCESS:   11931802  HIT:    7220486  MISS:    4711316
BTB BRANCH_CONDITIONAL	ACCESS:    7548039  HIT:    6326083  MISS:    1221956
BTB BRANCH_DIRECT_CALL	ACCESS:    3806012  HIT:    1828717  MISS:    1977295
BTB BRANCH_INDIRECT_CALL	ACCESS:     720088  HIT:     358904  MISS:     361184
BTB BRANCH_RETURN	ACCESS:    4526114  HIT:    1376778  MISS:    3149336
BTB BRANCH_OTHER ACCESS:          0  HIT:          0  MISS:          0

L2C TOTAL     ACCESS:   19064065  HIT:   18059845  MISS:    1004220  HIT %:    94.7324  MISS %:    5.26761   MPKI: 5.0211
L2C LOAD      ACCESS:   14066354  HIT:   13259528  MISS:     806826  HIT %:    94.2641  MISS %:    5.73586   MPKI: 4.03413
L2C DATA LOAD MPKI: 1.39088
L2C INSTRUCTION LOAD MPKI: 2.64325
L2C RFO       ACCESS:    1179477  HIT:    1111035  MISS:      68442  HIT %:    94.1973  MISS %:    5.80274   MPKI: 0.34221
L2C PREFETCH  ACCESS:    1424721  HIT:    1358881  MISS:      65840  HIT %:    95.3787  MISS %:    4.62126   MPKI: 0.3292
AGUS PREFETCH L1 MISS: 0
L2C DATA PREFETCH MPKI: 0.3292
L2C INSTRUCTION PREFETCH MPKI: 0
L2C WRITEBACK ACCESS:    2271847  HIT:    2249003  MISS:      22844  HIT %:    98.9945  MISS %:    1.00553   MPKI: 0.11422
L2C LOAD TRANSLATION ACCESS:     106591  HIT:      68574  MISS:      38017  HIT %:    64.3338  MISS %:    35.6662   MPKI: 0.190085
L2C TRANSLATION FROM L1D PREFETCHER ACCESS:      15075  HIT:      12824  MISS:       2251  HIT %:     85.068  MISS %:     14.932   MPKI: 0.011255
L2C PREFETCH  REQUESTED:          0  ISSUED:          0  USEFUL:       7244  USELESS:      60854
L2C USEFUL LOAD PREFETCHES:       7244 PREFETCH ISSUED TO LOWER LEVEL:      65840  ACCURACY: 11.0024
L2C TIMELY PREFETCHES:       7244 LATE PREFETCHES: 0 DROPPED PREFETCHES: 0
L2C PREFETCHES SAME FILL-ORIGIN LEVEL: 0 DIFFERENT FILL-ORIGIN LEVEL: 0
L2C AVERAGE MISS LATENCY: 43.8126 cycles
L2C RQ	ACCESS:   15367498	FORWARD:          0	MERGED:          0	TO_CACHE:   15367497
L2C WQ	ACCESS:    2271847	FORWARD:        182	MERGED:          0	TO_CACHE:    2271847
L2C PQ	ACCESS:    1424902	FORWARD:          0	MERGED:          0	TO_CACHE:    1424721

L2C Instructions Evicting Data 175997
L2C Translations Evicting Data 26358
L2C Data Evicting Data 225307
L2C Instructions Evicting Instructions 342552
L2C Translations Evicting Instructions 9879
L2C Data Evicting Instructions 161225
L2C Instructions Evicting Translations 10101
L2C Translations Evicting Translations 4031
L2C Data Evicting Translations 25926
L2C Dense regions hint from L2: 0
PSCL5 TOTAL     ACCESS:      84686  HIT:      84686  MISS:          0  HIT %:        100  MISS %:          0   MPKI: 0
PSCL5 LOAD TRANSLATION ACCESS:      74163  HIT:      74163  MISS:          0  HIT %:        100  MISS %:          0   MPKI: 0
PSCL5 TRANSLATION FROM L1D PREFETCHER ACCESS:      10523  HIT:      10523  MISS:          0  HIT %:        100  MISS %:          0   MPKI: 0
PSCL5 PREFETCH  REQUESTED:          0  ISSUED:          0  USEFUL:          0  USELESS:          0
PSCL5 USEFUL LOAD PREFETCHES:          0 PREFETCH ISSUED TO LOWER LEVEL:          0  ACCURACY: -nan
PSCL5 TIMELY PREFETCHES:          0 LATE PREFETCHES: 0 DROPPED PREFETCHES: 0
PSCL5 PREFETCHES SAME FILL-ORIGIN LEVEL: 0 DIFFERENT FILL-ORIGIN LEVEL: 0

PSCL4 TOTAL     ACCESS:      81824  HIT:      81086  MISS:        738  HIT %:    99.0981  MISS %:   0.901936   MPKI: 0.00369
PSCL4 LOAD TRANSLATION ACCESS:      72980  HIT:      72242  MISS:        738  HIT %:    98.9888  MISS %:    1.01124   MPKI: 0.00369
PSCL4 TRANSLATION FROM L1D PREFETCHER ACCESS:       8844  HIT:       8844  MISS:          0  HIT %:        100  MISS %:          0   MPKI: 0
PSCL4 PREFETCH  REQUESTED:          0  ISSUED:          0  USEFUL:          0  USELESS:          0
PSCL4 USEFUL LOAD PREFETCHES:          0 PREFETCH ISSUED TO LOWER LEVEL:          0  ACCURACY: -nan
PSCL4 TIMELY PREFETCHES:          0 LATE PREFETCHES: 0 DROPPED PREFETCHES: 0
PSCL4 PREFETCHES SAME FILL-ORIGIN LEVEL: 0 DIFFERENT FILL-ORIGIN LEVEL: 0

PSCL3 TOTAL     ACCESS:      84105  HIT:      83367  MISS:        738  HIT %:    99.1225  MISS %:   0.877475   MPKI: 0.00369
PSCL3 LOAD TRANSLATION ACCESS:      73965  HIT:      73227  MISS:        738  HIT %:    99.0022  MISS %:   0.997769   MPKI: 0.00369
PSCL3 TRANSLATION FROM L1D PREFETCHER ACCESS:      10140  HIT:      10140  MISS:          0  HIT %:        100  MISS %:          0   MPKI: 0
PSCL3 PREFETCH  REQUESTED:          0  ISSUED:          0  USEFUL:          0  USELESS:          0
PSCL3 USEFUL LOAD PREFETCHES:          0 PREFETCH ISSUED TO LOWER LEVEL:          0  ACCURACY: -nan
PSCL3 TIMELY PREFETCHES:          0 LATE PREFETCHES: 0 DROPPED PREFETCHES: 0
PSCL3 PREFETCHES SAME FILL-ORIGIN LEVEL: 0 DIFFERENT FILL-ORIGIN LEVEL: 0

PSCL2 TOTAL     ACCESS:      79949  HIT:      47083  MISS:      32866  HIT %:    58.8913  MISS %:    41.1087   MPKI: 0.16433
PSCL2 LOAD TRANSLATION ACCESS:      75951  HIT:      43085  MISS:      32866  HIT %:    56.7274  MISS %:    43.2726   MPKI: 0.16433
PSCL2 TRANSLATION FROM L1D PREFETCHER ACCESS:       3998  HIT:       3998  MISS:          0  HIT %:        100  MISS %:          0   MPKI: 0
PSCL2 PREFETCH  REQUESTED:          0  ISSUED:          0  USEFUL:          0  USELESS:          0
PSCL2 USEFUL LOAD PREFETCHES:          0 PREFETCH ISSUED TO LOWER LEVEL:          0  ACCURACY: -nan
PSCL2 TIMELY PREFETCHES:          0 LATE PREFETCHES: 0 DROPPED PREFETCHES: 0
PSCL2 PREFETCHES SAME FILL-ORIGIN LEVEL: 0 DIFFERENT FILL-ORIGIN LEVEL: 0

LLC TOTAL     ACCESS:    1070663  HIT:     962765  MISS:     107898  HIT %:    89.9223  MISS %:    10.0777   MPKI: 0.53949
LLC LOAD      ACCESS:     806826  HIT:     719427  MISS:      87399  HIT %:    89.1676  MISS %:    10.8324   MPKI: 0.436995
LLC RFO       ACCESS:      68440  HIT:      60463  MISS:       7977  HIT %:    88.3445  MISS %:    11.6555   MPKI: 0.039885
LLC PREFETCH  ACCESS:      65840  HIT:      56697  MISS:       9143  HIT %:    86.1133  MISS %:    13.8867   MPKI: 0.045715
AGUS PREFETCH L1 MISS: 0
LLC WRITEBACK ACCESS:      89289  HIT:      88926  MISS:        363  HIT %:    99.5935  MISS %:   0.406545   MPKI: 0.001815
LLC LOAD TRANSLATION ACCESS:      38017  HIT:      35149  MISS:       2868  HIT %:     92.456  MISS %:    7.54399   MPKI: 0.01434
LLC TRANSLATION FROM L1D PREFETCHER ACCESS:       2251  HIT:       2103  MISS:        148  HIT %:    93.4251  MISS %:    6.57486   MPKI: 0.00074
LLC PREFETCH  REQUESTED:          0  ISSUED:          0  USEFUL:        326  USELESS:       9289
LLC USEFUL LOAD PREFETCHES:        326 PREFETCH ISSUED TO LOWER LEVEL:       9143  ACCURACY: 3.56557
LLC TIMELY PREFETCHES:        326 LATE PREFETCHES: 0 DROPPED PREFETCHES: 0
LLC PREFETCHES SAME FILL-ORIGIN LEVEL: 0 DIFFERENT FILL-ORIGIN LEVEL: 0
LLC AVERAGE MISS LATENCY: 134.861 cycles
LLC RQ	ACCESS:     915536	FORWARD:          0	MERGED:          0	TO_CACHE:     915534
LLC WQ	ACCESS:      89289	FORWARD:          2	MERGED:          0	TO_CACHE:      89289
LLC PQ	ACCESS:      65840	FORWARD:          0	MERGED:          0	TO_CACHE:      65840

LLC Dense regions hint to LLC: 0

RAW hits: 1416015
Loads Generated: 47484266
Loads sent to L1D: 46068249
Stores Generated: 26217178
Stores sent to L1D: 26217180
Major fault: 0 Minor fault: 6256
Allocated PAGES: 6256
Completed 
Accuracy : 93.5738
Number of unique groups: 1610628

DRAM Statistics
 CHANNEL 0
 RQ ROW_BUFFER_HIT:      40792  ROW_BUFFER_MISS:      66743
 DBUS_CONGESTED:         55
 WQ ROW_BUFFER_HIT:       1460  ROW_BUFFER_MISS:       7939  FULL:          0

 AVG_CONGESTED_CYCLE: 4
 All warmup complete: 2
Channel 0 Bank busy for read cycles: 0
Channel 0 Bank busy for write cycles: 0
Channel 0
Rank 0
0banks busy for read cycles: 629557272
0banks busy for write cycles: 6427
1banks busy for read cycles: 6532563
1banks busy for write cycles: 1020189
2banks busy for read cycles: 838981
2banks busy for write cycles: 170554
3banks busy for read cycles: 253072
3banks busy for write cycles: 63292
4banks busy for read cycles: 132105
4banks busy for write cycles: 30756
5banks busy for read cycles: 103197
5banks busy for write cycles: 9582
6banks busy for read cycles: 101903
6banks busy for write cycles: 3365
7banks busy for read cycles: 93143
7banks busy for write cycles: 898
8banks busy for read cycles: 96756
8banks busy for write cycles: 1592

CPU 0 Branch Prediction Accuracy: 99.7758% MPKI: 0.40526 Average ROB Occupancy at Mispredict: 44.1002
Branch types
NOT_BRANCH: 163841120 81.9206%
BRANCH_DIRECT_JUMP: 2010403 1.0052%
BRANCH_INDIRECT: 11931802 5.9659%
BRANCH_CONDITIONAL: 13164452 6.58223%
BRANCH_DIRECT_CALL: 3806012 1.90301%
BRANCH_INDIRECT_CALL: 720088 0.360044%
BRANCH_RETURN: 4526114 2.26306%
BRANCH_OTHER: 0 0%

DRAM PAGES: 1048576
Allocated PAGES: 6256
