
*** ChampSim Multicore Out-of-Order Simulator ***

Warmup Instructions: 50000000
Simulation Instructions: 200000000
Number of CPUs: 1
LLC sets: 2048
LLC ways: 16
Off-chip DRAM Size: 4096 MB Channels: 1 Width: 64-bit Data Rate: 6400 MT/s
CPU 0 runs traces/spec2k17/server_017.champsimtrace.xz
.xz
BTB has LRU replacement policy
ITLB has LRU replacement policy
DTLB has LRU replacement policy
STLB has LRU replacement policy
L1I has LRU replacement policy
L1D has LRU replacement policy
Initialize SRRIP state for L2C
Initialize DRRIP state for LLC
Heartbeat CPU 0 instructions: 10000000 cycles: 2938014 heartbeat IPC: 3.40366 cumulative IPC: 3.40366 (Simulation time: 0 hr 0 min 47 sec) 
Heartbeat CPU 0 instructions: 20000000 cycles: 5875223 heartbeat IPC: 3.40459 cumulative IPC: 3.40413 (Simulation time: 0 hr 1 min 30 sec) 
Heartbeat CPU 0 instructions: 30000003 cycles: 8811646 heartbeat IPC: 3.4055 cumulative IPC: 3.40459 (Simulation time: 0 hr 2 min 15 sec) 
Heartbeat CPU 0 instructions: 40000003 cycles: 11748427 heartbeat IPC: 3.40509 cumulative IPC: 3.40471 (Simulation time: 0 hr 3 min 7 sec) 
Heartbeat CPU 0 instructions: 50000000 cycles: 14686359 heartbeat IPC: 3.40375 cumulative IPC: 3.40452 (Simulation time: 0 hr 4 min 0 sec) 

Warmup complete CPU 0 instructions: 50000004 cycles: 14686360 (Simulation time: 0 hr 4 min 0 sec) 

Heartbeat CPU 0 instructions: 60000003 cycles: 36175566 heartbeat IPC: 0.46535 cumulative IPC: 0.46535 (Simulation time: 0 hr 5 min 16 sec) 
Heartbeat CPU 0 instructions: 70000001 cycles: 57580394 heartbeat IPC: 0.467184 cumulative IPC: 0.466265 (Simulation time: 0 hr 6 min 35 sec) 
Heartbeat CPU 0 instructions: 80000003 cycles: 78981584 heartbeat IPC: 0.467264 cumulative IPC: 0.466598 (Simulation time: 0 hr 7 min 50 sec) 
Heartbeat CPU 0 instructions: 90000002 cycles: 100262378 heartbeat IPC: 0.469907 cumulative IPC: 0.467421 (Simulation time: 0 hr 8 min 58 sec) 
Heartbeat CPU 0 instructions: 100000002 cycles: 132620250 heartbeat IPC: 0.309044 cumulative IPC: 0.423966 (Simulation time: 0 hr 10 min 19 sec) 
*** Reached end of trace for Core: 0 Repeating trace: traces/spec2k17/server_017.champsimtrace.xz
Heartbeat CPU 0 instructions: 110000000 cycles: 156850959 heartbeat IPC: 0.412699 cumulative IPC: 0.422046 (Simulation time: 0 hr 11 min 40 sec) 
Heartbeat CPU 0 instructions: 120000002 cycles: 179714102 heartbeat IPC: 0.437385 cumulative IPC: 0.424171 (Simulation time: 0 hr 13 min 2 sec) 
Heartbeat CPU 0 instructions: 130000002 cycles: 201882931 heartbeat IPC: 0.451084 cumulative IPC: 0.427358 (Simulation time: 0 hr 14 min 20 sec) 
Heartbeat CPU 0 instructions: 140000002 cycles: 223833040 heartbeat IPC: 0.455579 cumulative IPC: 0.43032 (Simulation time: 0 hr 15 min 36 sec) 
Heartbeat CPU 0 instructions: 150000003 cycles: 245481656 heartbeat IPC: 0.461923 cumulative IPC: 0.433284 (Simulation time: 0 hr 16 min 53 sec) 
Heartbeat CPU 0 instructions: 160000003 cycles: 267042518 heartbeat IPC: 0.463803 cumulative IPC: 0.435892 (Simulation time: 0 hr 18 min 11 sec) 
Heartbeat CPU 0 instructions: 170000000 cycles: 288487815 heartbeat IPC: 0.466303 cumulative IPC: 0.438274 (Simulation time: 0 hr 19 min 28 sec) 
Heartbeat CPU 0 instructions: 180000001 cycles: 309948083 heartbeat IPC: 0.465977 cumulative IPC: 0.440287 (Simulation time: 0 hr 20 min 49 sec) 
Heartbeat CPU 0 instructions: 190000000 cycles: 331349126 heartbeat IPC: 0.467267 cumulative IPC: 0.442111 (Simulation time: 0 hr 22 min 14 sec) 
Heartbeat CPU 0 instructions: 200000003 cycles: 352632344 heartbeat IPC: 0.469854 cumulative IPC: 0.443858 (Simulation time: 0 hr 23 min 42 sec) 
Heartbeat CPU 0 instructions: 210000001 cycles: 385677180 heartbeat IPC: 0.302619 cumulative IPC: 0.431278 (Simulation time: 0 hr 25 min 51 sec) 
*** Reached end of trace for Core: 0 Repeating trace: traces/spec2k17/server_017.champsimtrace.xz
Heartbeat CPU 0 instructions: 220000000 cycles: 408933773 heartbeat IPC: 0.429986 cumulative IPC: 0.431201 (Simulation time: 0 hr 28 min 31 sec) 
Heartbeat CPU 0 instructions: 230000000 cycles: 431320344 heartbeat IPC: 0.446696 cumulative IPC: 0.432034 (Simulation time: 0 hr 30 min 33 sec) 
Heartbeat CPU 0 instructions: 240000001 cycles: 453330003 heartbeat IPC: 0.454346 cumulative IPC: 0.433153 (Simulation time: 0 hr 31 min 59 sec) 
Heartbeat CPU 0 instructions: 250000003 cycles: 475066775 heartbeat IPC: 0.46005 cumulative IPC: 0.434423 (Simulation time: 0 hr 34 min 33 sec) 
Finished CPU 0 instructions: 200000001 cycles: 460380416 cumulative IPC: 0.434423 (Simulation time: 0 hr 34 min 33 sec) 

ChampSim completed all CPUs

Region of Interest Statistics

CPU 0 cumulative IPC: 0.434423 instructions: 200000001 cycles: 460380416
ITLB TOTAL     ACCESS:   33607643  HIT:   32188982  MISS:    1418661  HIT %:    95.7788  MISS %:    4.22125   MPKI: 7.0933
ITLB LOAD TRANSLATION ACCESS:   33607643  HIT:   32188982  MISS:    1418661  HIT %:    95.7788  MISS %:    4.22125   MPKI: 7.0933
ITLB PREFETCH  REQUESTED:          0  ISSUED:          0  USEFUL:          0  USELESS:          0
ITLB USEFUL LOAD PREFETCHES:          0 PREFETCH ISSUED TO LOWER LEVEL:          0  ACCURACY: -nan
ITLB TIMELY PREFETCHES:          0 LATE PREFETCHES: 0 DROPPED PREFETCHES: 0
ITLB PREFETCHES SAME FILL-ORIGIN LEVEL: 0 DIFFERENT FILL-ORIGIN LEVEL: 0
ITLB AVERAGE MISS LATENCY: 9.52951 cycles
ITLB RQ	ACCESS:   40236487	FORWARD:          0	MERGED:    6171406	TO_CACHE:   34065081

DTLB TOTAL     ACCESS:   38762080  HIT:   37140056  MISS:    1622024  HIT %:    95.8154  MISS %:    4.18456   MPKI: 8.11012
DTLB LOAD TRANSLATION ACCESS:   38762080  HIT:   37140056  MISS:    1622024  HIT %:    95.8154  MISS %:    4.18456   MPKI: 8.11012
DTLB PREFETCH  REQUESTED:          0  ISSUED:          0  USEFUL:          0  USELESS:          0
DTLB USEFUL LOAD PREFETCHES:          0 PREFETCH ISSUED TO LOWER LEVEL:          0  ACCURACY: -nan
DTLB TIMELY PREFETCHES:          0 LATE PREFETCHES: 0 DROPPED PREFETCHES: 0
DTLB PREFETCHES SAME FILL-ORIGIN LEVEL: 0 DIFFERENT FILL-ORIGIN LEVEL: 0
DTLB AVERAGE MISS LATENCY: 22.0468 cycles
DTLB RQ	ACCESS:   58668463	FORWARD:          0	MERGED:   19526841	TO_CACHE:   39141622

STLB TOTAL     ACCESS:    4183748  HIT:    3989680  MISS:     194068  HIT %:    95.3614  MISS %:    4.63862   MPKI: 0.97034
STLB LOAD TRANSLATION ACCESS:    3040685  HIT:    2846643  MISS:     194042  HIT %:    93.6185  MISS %:    6.38152   MPKI: 0.97021
STLB TRANSLATION FROM L1D PREFETCHER ACCESS:    1143063  HIT:    1143037  MISS:         26  HIT %:    99.9977  MISS %: 0.00227459   MPKI: 0.00013
STLB PREFETCH  REQUESTED:          0  ISSUED:          0  USEFUL:         25  USELESS:          1
STLB USEFUL LOAD PREFETCHES:         25 PREFETCH ISSUED TO LOWER LEVEL:          0  ACCURACY: inf
STLB TIMELY PREFETCHES:         25 LATE PREFETCHES: 54 DROPPED PREFETCHES: 661
STLB PREFETCHES SAME FILL-ORIGIN LEVEL: 0 DIFFERENT FILL-ORIGIN LEVEL: 0
STLB AVERAGE MISS LATENCY: 113.23 cycles
STLB RQ	ACCESS:    4610352	FORWARD:          0	MERGED:     425866	TO_CACHE:    4184486

STLB Hit, L1D data hit: 0
STLB Hit, L2C data hit: 0
STLB Hit, LLC data hit: 0
STLB Hit, LLC data miss: 0
STLB STLB hints to L2: 0
L1D TOTAL     ACCESS:   49181879  HIT:   42596123  MISS:    6585756  HIT %:    86.6094  MISS %:    13.3906   MPKI: 32.9288
L1D LOAD      ACCESS:   25965167  HIT:   22799958  MISS:    3165209  HIT %:    87.8098  MISS %:    12.1902   MPKI: 15.826
L1D RFO       ACCESS:   21702571  HIT:   18292484  MISS:    3410087  HIT %:    84.2872  MISS %:    15.7128   MPKI: 17.0504
L1D PREFETCH  ACCESS:    1514141  HIT:    1503681  MISS:      10460  HIT %:    99.3092  MISS %:   0.690821   MPKI: 0.0523
AGUS PREFETCH L1 MISS: 0
L1D PREFETCH  REQUESTED:    3216781  ISSUED:    3216780  USEFUL:       8460  USELESS:       2000
L1D USEFUL LOAD PREFETCHES:       8460 PREFETCH ISSUED TO LOWER LEVEL:      20710  ACCURACY: 40.8498
L1D TIMELY PREFETCHES:       8460 LATE PREFETCHES: 10235 DROPPED PREFETCHES: 873
L1D PREFETCHES SAME FILL-ORIGIN LEVEL: 20710 DIFFERENT FILL-ORIGIN LEVEL: 0
L1D AVERAGE MISS LATENCY: 443044 cycles
L1D RQ	ACCESS:   44316714	FORWARD:          0	MERGED:   17650301	TO_CACHE:   26409631
L1D WQ	ACCESS:   32470855	FORWARD:     271596	MERGED:     212023	TO_CACHE:   32258832
L1D PQ	ACCESS:    1647113	FORWARD:          0	MERGED:      62632	TO_CACHE:    1569667

L1D UNIQUE REGIONS ACCESSED: 0
L1D REGIONS CONFLICTS: 0
L1D Cross Page Prefetch Requests: 1096524
L1D Same Page Prefetch Requests: 580415
L1D ROI Sum of L1D PQ occupancy: 21858041
L1D PREFETCHES PUSHED FROM L2C: 0
L1I TOTAL     ACCESS:   37761572  HIT:   29298857  MISS:    8462715  HIT %:    77.5891  MISS %:    22.4109   MPKI: 42.3136
L1I LOAD      ACCESS:   37761572  HIT:   29298857  MISS:    8462715  HIT %:    77.5891  MISS %:    22.4109   MPKI: 42.3136
L1I PREFETCH  REQUESTED:          0  ISSUED:          0  USEFUL:          0  USELESS:          0
L1I USEFUL LOAD PREFETCHES:          0 PREFETCH ISSUED TO LOWER LEVEL:          0  ACCURACY: -nan
L1I TIMELY PREFETCHES:          0 LATE PREFETCHES: 0 DROPPED PREFETCHES: 0
L1I PREFETCHES SAME FILL-ORIGIN LEVEL: 0 DIFFERENT FILL-ORIGIN LEVEL: 0
L1I AVERAGE MISS LATENCY: 17.6367 cycles
L1I RQ	ACCESS:   58508032	FORWARD:          0	MERGED:   18271545	TO_CACHE:   40236487

BTB TOTAL     ACCESS:   25752481  HIT:   24097822  MISS:    1654659  HIT %:    93.5748  MISS %:    6.42524   MPKI: 8.27329
BTB BRANCH_DIRECT_JUMP	ACCESS:    1719252  HIT:    1709782  MISS:       9470
BTB BRANCH_INDIRECT	ACCESS:    9847536  HIT:    9196489  MISS:     651047
BTB BRANCH_CONDITIONAL	ACCESS:    7525905  HIT:    7512901  MISS:      13004
BTB BRANCH_DIRECT_CALL	ACCESS:    2636580  HIT:    2604766  MISS:      31814
BTB BRANCH_INDIRECT_CALL	ACCESS:     693283  HIT:     590648  MISS:     102635
BTB BRANCH_RETURN	ACCESS:    3329925  HIT:    2483236  MISS:     846689
BTB BRANCH_OTHER ACCESS:          0  HIT:          0  MISS:          0

L2C TOTAL     ACCESS:   19523053  HIT:   13005543  MISS:    6517510  HIT %:    66.6163  MISS %:    33.3837   MPKI: 32.5875
L2C LOAD      ACCESS:   11617549  HIT:    8622365  MISS:    2995184  HIT %:    74.2185  MISS %:    25.7815   MPKI: 14.9759
L2C DATA LOAD MPKI: 12.298
L2C INSTRUCTION LOAD MPKI: 2.6779
L2C RFO       ACCESS:    3410060  HIT:     154836  MISS:    3255224  HIT %:    4.54057  MISS %:    95.4594   MPKI: 16.2761
L2C PREFETCH  ACCESS:      20705  HIT:      16140  MISS:       4565  HIT %:    77.9522  MISS %:    22.0478   MPKI: 0.022825
AGUS PREFETCH L1 MISS: 0
L2C DATA PREFETCH MPKI: 0.022825
L2C INSTRUCTION PREFETCH MPKI: 0
L2C WRITEBACK ACCESS:    4206773  HIT:    4061945  MISS:     144828  HIT %:    96.5573  MISS %:    3.44273   MPKI: 0.72414
L2C LOAD TRANSLATION ACCESS:     266889  HIT:     149943  MISS:     116946  HIT %:    56.1818  MISS %:    43.8182   MPKI: 0.58473
L2C TRANSLATION FROM L1D PREFETCHER ACCESS:       1077  HIT:        314  MISS:        763  HIT %:    29.1551  MISS %:    70.8449   MPKI: 0.003815
L2C PREFETCH  REQUESTED:          0  ISSUED:          0  USEFUL:        820  USELESS:       4505
L2C USEFUL LOAD PREFETCHES:        820 PREFETCH ISSUED TO LOWER LEVEL:       4565  ACCURACY: 17.9628
L2C TIMELY PREFETCHES:        820 LATE PREFETCHES: 0 DROPPED PREFETCHES: 0
L2C PREFETCHES SAME FILL-ORIGIN LEVEL: 0 DIFFERENT FILL-ORIGIN LEVEL: 0
L2C AVERAGE MISS LATENCY: 164.575 cycles
L2C RQ	ACCESS:   15295727	FORWARD:          0	MERGED:          0	TO_CACHE:   15295575
L2C WQ	ACCESS:    4206773	FORWARD:        157	MERGED:          0	TO_CACHE:    4206773
L2C PQ	ACCESS:      20710	FORWARD:          0	MERGED:          0	TO_CACHE:      20705

L2C Instructions Evicting Data 480158
L2C Translations Evicting Data 104491
L2C Data Evicting Data 5148907
L2C Instructions Evicting Instructions 44722
L2C Translations Evicting Instructions 11407
L2C Data Evicting Instructions 467272
L2C Instructions Evicting Translations 10700
L2C Translations Evicting Translations 1811
L2C Data Evicting Translations 103214
L2C Dense regions hint from L2: 0
PSCL5 TOTAL     ACCESS:     194720  HIT:     194720  MISS:          0  HIT %:        100  MISS %:          0   MPKI: 0
PSCL5 LOAD TRANSLATION ACCESS:     193988  HIT:     193988  MISS:          0  HIT %:        100  MISS %:          0   MPKI: 0
PSCL5 TRANSLATION FROM L1D PREFETCHER ACCESS:        732  HIT:        732  MISS:          0  HIT %:        100  MISS %:          0   MPKI: 0
PSCL5 PREFETCH  REQUESTED:          0  ISSUED:          0  USEFUL:          0  USELESS:          0
PSCL5 USEFUL LOAD PREFETCHES:          0 PREFETCH ISSUED TO LOWER LEVEL:          0  ACCURACY: -nan
PSCL5 TIMELY PREFETCHES:          0 LATE PREFETCHES: 0 DROPPED PREFETCHES: 0
PSCL5 PREFETCHES SAME FILL-ORIGIN LEVEL: 0 DIFFERENT FILL-ORIGIN LEVEL: 0

PSCL4 TOTAL     ACCESS:     137293  HIT:     136830  MISS:        463  HIT %:    99.6628  MISS %:   0.337235   MPKI: 0.002315
PSCL4 LOAD TRANSLATION ACCESS:     136640  HIT:     136177  MISS:        463  HIT %:    99.6612  MISS %:   0.338847   MPKI: 0.002315
PSCL4 TRANSLATION FROM L1D PREFETCHER ACCESS:        653  HIT:        653  MISS:          0  HIT %:        100  MISS %:          0   MPKI: 0
PSCL4 PREFETCH  REQUESTED:          0  ISSUED:          0  USEFUL:          0  USELESS:          0
PSCL4 USEFUL LOAD PREFETCHES:          0 PREFETCH ISSUED TO LOWER LEVEL:          0  ACCURACY: -nan
PSCL4 TIMELY PREFETCHES:          0 LATE PREFETCHES: 0 DROPPED PREFETCHES: 0
PSCL4 PREFETCHES SAME FILL-ORIGIN LEVEL: 0 DIFFERENT FILL-ORIGIN LEVEL: 0

PSCL3 TOTAL     ACCESS:     193252  HIT:     191324  MISS:       1928  HIT %:    99.0023  MISS %:   0.997661   MPKI: 0.00964
PSCL3 LOAD TRANSLATION ACCESS:     192836  HIT:     190908  MISS:       1928  HIT %:    99.0002  MISS %:   0.999813   MPKI: 0.00964
PSCL3 TRANSLATION FROM L1D PREFETCHER ACCESS:        416  HIT:        416  MISS:          0  HIT %:        100  MISS %:          0   MPKI: 0
PSCL3 PREFETCH  REQUESTED:          0  ISSUED:          0  USEFUL:          0  USELESS:          0
PSCL3 USEFUL LOAD PREFETCHES:          0 PREFETCH ISSUED TO LOWER LEVEL:          0  ACCURACY: -nan
PSCL3 TIMELY PREFETCHES:          0 LATE PREFETCHES: 0 DROPPED PREFETCHES: 0
PSCL3 PREFETCHES SAME FILL-ORIGIN LEVEL: 0 DIFFERENT FILL-ORIGIN LEVEL: 0

PSCL2 TOTAL     ACCESS:     194097  HIT:     123477  MISS:      70620  HIT %:    63.6161  MISS %:    36.3839   MPKI: 0.3531
PSCL2 LOAD TRANSLATION ACCESS:     194057  HIT:     123437  MISS:      70620  HIT %:    63.6086  MISS %:    36.3914   MPKI: 0.3531
PSCL2 TRANSLATION FROM L1D PREFETCHER ACCESS:         40  HIT:         40  MISS:          0  HIT %:        100  MISS %:          0   MPKI: 0
PSCL2 PREFETCH  REQUESTED:          0  ISSUED:          0  USEFUL:          0  USELESS:          0
PSCL2 USEFUL LOAD PREFETCHES:          0 PREFETCH ISSUED TO LOWER LEVEL:          0  ACCURACY: -nan
PSCL2 TIMELY PREFETCHES:          0 LATE PREFETCHES: 0 DROPPED PREFETCHES: 0
PSCL2 PREFETCHES SAME FILL-ORIGIN LEVEL: 0 DIFFERENT FILL-ORIGIN LEVEL: 0

LLC TOTAL     ACCESS:   10278958  HIT:    3706705  MISS:    6572253  HIT %:    36.0611  MISS %:    63.9389   MPKI: 32.8613
LLC LOAD      ACCESS:    2995182  HIT:    1373708  MISS:    1621474  HIT %:    45.8639  MISS %:    54.1361   MPKI: 8.10737
LLC RFO       ACCESS:    3255210  HIT:     875303  MISS:    2379907  HIT %:    26.8893  MISS %:    73.1107   MPKI: 11.8995
LLC PREFETCH  ACCESS:       4565  HIT:       2800  MISS:       1765  HIT %:    61.3363  MISS %:    38.6637   MPKI: 0.008825
AGUS PREFETCH L1 MISS: 0
LLC WRITEBACK ACCESS:    3906292  HIT:    1406466  MISS:    2499826  HIT %:    36.0051  MISS %:    63.9949   MPKI: 12.4991
LLC LOAD TRANSLATION ACCESS:     116946  HIT:      48046  MISS:      68900  HIT %:    41.0839  MISS %:    58.9161   MPKI: 0.3445
LLC TRANSLATION FROM L1D PREFETCHER ACCESS:        763  HIT:        382  MISS:        381  HIT %:    50.0655  MISS %:    49.9345   MPKI: 0.001905
LLC PREFETCH  REQUESTED:          0  ISSUED:          0  USEFUL:         39  USELESS:       2106
LLC USEFUL LOAD PREFETCHES:         39 PREFETCH ISSUED TO LOWER LEVEL:       1765  ACCURACY: 2.20963
LLC TIMELY PREFETCHES:         39 LATE PREFETCHES: 0 DROPPED PREFETCHES: 0
LLC PREFETCHES SAME FILL-ORIGIN LEVEL: 0 DIFFERENT FILL-ORIGIN LEVEL: 0
LLC AVERAGE MISS LATENCY: 133.764 cycles
LLC RQ	ACCESS:    6368117	FORWARD:          0	MERGED:          0	TO_CACHE:    6368101
LLC WQ	ACCESS:    3906293	FORWARD:         16	MERGED:          0	TO_CACHE:    3906293
LLC PQ	ACCESS:       4565	FORWARD:          0	MERGED:          0	TO_CACHE:       4565

LLC Dense regions hint to LLC: 0

RAW hits: 2580899
Loads Generated: 46897618
Loads sent to L1D: 44316714
Stores Generated: 32470857
Stores sent to L1D: 32470855
Major fault: 0 Minor fault: 24906
Allocated PAGES: 24906
Completed 
Accuracy : 89.2093
Number of unique groups: 3319597

DRAM Statistics
 CHANNEL 0
 RQ ROW_BUFFER_HIT:    1656727  ROW_BUFFER_MISS:    2415378
 DBUS_CONGESTED:       1691
 WQ ROW_BUFFER_HIT:     611569  ROW_BUFFER_MISS:    2023560  FULL:      41523

 AVG_CONGESTED_CYCLE: 3
 All warmup complete: 2
Channel 0 Bank busy for read cycles: 0
Channel 0 Bank busy for write cycles: 0
Channel 0
Rank 0
0banks busy for read cycles: 166034096
0banks busy for write cycles: 294640
1banks busy for read cycles: 78238939
1banks busy for write cycles: 45792886
2banks busy for read cycles: 23337582
2banks busy for write cycles: 21585597
3banks busy for read cycles: 16798591
3banks busy for write cycles: 10557636
4banks busy for read cycles: 8718544
4banks busy for write cycles: 5893209
5banks busy for read cycles: 5693354
5banks busy for write cycles: 4106618
6banks busy for read cycles: 11067518
6banks busy for write cycles: 3665135
7banks busy for read cycles: 4927993
7banks busy for write cycles: 5882321
8banks busy for read cycles: 13931861
8banks busy for write cycles: 33853897

CPU 0 Branch Prediction Accuracy: 99.9393% MPKI: 0.094655 Average ROB Occupancy at Mispredict: 111.462
Branch types
NOT_BRANCH: 168807431 84.4037%
BRANCH_DIRECT_JUMP: 1719252 0.859626%
BRANCH_INDIRECT: 9847536 4.92377%
BRANCH_CONDITIONAL: 12965646 6.48282%
BRANCH_DIRECT_CALL: 2636580 1.31829%
BRANCH_INDIRECT_CALL: 693283 0.346641%
BRANCH_RETURN: 3329925 1.66496%
BRANCH_OTHER: 0 0%

DRAM PAGES: 1048576
Allocated PAGES: 24906
