
*** ChampSim Multicore Out-of-Order Simulator ***

Warmup Instructions: 50000000
Simulation Instructions: 200000000
Number of CPUs: 1
LLC sets: 2048
LLC ways: 16
Off-chip DRAM Size: 4096 MB Channels: 1 Width: 64-bit Data Rate: 6400 MT/s
CPU 0 runs traces/spec2k17/server_011.champsimtrace.xz
.xz
BTB has LRU replacement policy
ITLB has LRU replacement policy
DTLB has LRU replacement policy
STLB has LRU replacement policy
L1I has LRU replacement policy
L1D has LRU replacement policy
Initialize SRRIP state for L2C
Initialize DRRIP state for LLC
Heartbeat CPU 0 instructions: 10000002 cycles: 2779696 heartbeat IPC: 3.59752 cumulative IPC: 3.59752 (Simulation time: 0 hr 0 min 35 sec) 
Heartbeat CPU 0 instructions: 20000000 cycles: 5554390 heartbeat IPC: 3.604 cumulative IPC: 3.60076 (Simulation time: 0 hr 1 min 10 sec) 
Heartbeat CPU 0 instructions: 30000000 cycles: 8355361 heartbeat IPC: 3.57019 cumulative IPC: 3.59051 (Simulation time: 0 hr 1 min 49 sec) 
Heartbeat CPU 0 instructions: 40000001 cycles: 11130874 heartbeat IPC: 3.60294 cumulative IPC: 3.59361 (Simulation time: 0 hr 2 min 27 sec) 
Heartbeat CPU 0 instructions: 50000000 cycles: 13908569 heartbeat IPC: 3.60011 cumulative IPC: 3.59491 (Simulation time: 0 hr 3 min 6 sec) 

Warmup complete CPU 0 instructions: 50000004 cycles: 13908570 (Simulation time: 0 hr 3 min 6 sec) 

Heartbeat CPU 0 instructions: 60000001 cycles: 38043892 heartbeat IPC: 0.414331 cumulative IPC: 0.41433 (Simulation time: 0 hr 4 min 2 sec) 
Heartbeat CPU 0 instructions: 70000000 cycles: 62060712 heartbeat IPC: 0.416375 cumulative IPC: 0.41535 (Simulation time: 0 hr 4 min 52 sec) 
Heartbeat CPU 0 instructions: 80000001 cycles: 87856813 heartbeat IPC: 0.387656 cumulative IPC: 0.405689 (Simulation time: 0 hr 5 min 44 sec) 
Heartbeat CPU 0 instructions: 90000003 cycles: 113554161 heartbeat IPC: 0.389145 cumulative IPC: 0.401423 (Simulation time: 0 hr 6 min 42 sec) 
Heartbeat CPU 0 instructions: 100000003 cycles: 136726185 heartbeat IPC: 0.431555 cumulative IPC: 0.407108 (Simulation time: 0 hr 7 min 28 sec) 
*** Reached end of trace for Core: 0 Repeating trace: traces/spec2k17/server_011.champsimtrace.xz
Heartbeat CPU 0 instructions: 110000000 cycles: 160427501 heartbeat IPC: 0.421917 cumulative IPC: 0.409503 (Simulation time: 0 hr 8 min 23 sec) 
Heartbeat CPU 0 instructions: 120000003 cycles: 184682071 heartbeat IPC: 0.412294 cumulative IPC: 0.4099 (Simulation time: 0 hr 9 min 14 sec) 
Heartbeat CPU 0 instructions: 130000000 cycles: 208971857 heartbeat IPC: 0.411696 cumulative IPC: 0.410123 (Simulation time: 0 hr 10 min 8 sec) 
Heartbeat CPU 0 instructions: 140000002 cycles: 235581015 heartbeat IPC: 0.375811 cumulative IPC: 0.406004 (Simulation time: 0 hr 11 min 7 sec) 
Heartbeat CPU 0 instructions: 150000000 cycles: 259786841 heartbeat IPC: 0.413124 cumulative IPC: 0.406705 (Simulation time: 0 hr 12 min 12 sec) 
Heartbeat CPU 0 instructions: 160000002 cycles: 283652539 heartbeat IPC: 0.419012 cumulative IPC: 0.407794 (Simulation time: 0 hr 13 min 10 sec) 
Heartbeat CPU 0 instructions: 170000000 cycles: 307573059 heartbeat IPC: 0.418051 cumulative IPC: 0.40863 (Simulation time: 0 hr 14 min 8 sec) 
Heartbeat CPU 0 instructions: 180000002 cycles: 334364302 heartbeat IPC: 0.373256 cumulative IPC: 0.405672 (Simulation time: 0 hr 15 min 12 sec) 
Heartbeat CPU 0 instructions: 190000001 cycles: 358860319 heartbeat IPC: 0.40823 cumulative IPC: 0.405854 (Simulation time: 0 hr 16 min 8 sec) 
Heartbeat CPU 0 instructions: 200000002 cycles: 382112938 heartbeat IPC: 0.430059 cumulative IPC: 0.407382 (Simulation time: 0 hr 17 min 5 sec) 
*** Reached end of trace for Core: 0 Repeating trace: traces/spec2k17/server_011.champsimtrace.xz
Heartbeat CPU 0 instructions: 210000003 cycles: 405706319 heartbeat IPC: 0.423848 cumulative IPC: 0.408374 (Simulation time: 0 hr 18 min 3 sec) 
Heartbeat CPU 0 instructions: 220000000 cycles: 430033328 heartbeat IPC: 0.411066 cumulative IPC: 0.408531 (Simulation time: 0 hr 19 min 6 sec) 
Heartbeat CPU 0 instructions: 230000002 cycles: 453902401 heartbeat IPC: 0.418952 cumulative IPC: 0.409097 (Simulation time: 0 hr 20 min 10 sec) 
Heartbeat CPU 0 instructions: 240000001 cycles: 480880813 heartbeat IPC: 0.370667 cumulative IPC: 0.406876 (Simulation time: 0 hr 21 min 24 sec) 
Heartbeat CPU 0 instructions: 250000000 cycles: 504650539 heartbeat IPC: 0.420703 cumulative IPC: 0.407546 (Simulation time: 0 hr 22 min 36 sec) 
Finished CPU 0 instructions: 200000000 cycles: 490741972 cumulative IPC: 0.407546 (Simulation time: 0 hr 22 min 36 sec) 

ChampSim completed all CPUs

Region of Interest Statistics

CPU 0 cumulative IPC: 0.407546 instructions: 200000000 cycles: 490741972
ITLB TOTAL     ACCESS:   32107889  HIT:   31346610  MISS:     761279  HIT %:     97.629  MISS %:      2.371   MPKI: 3.8064
ITLB LOAD TRANSLATION ACCESS:   32107889  HIT:   31346610  MISS:     761279  HIT %:     97.629  MISS %:      2.371   MPKI: 3.8064
ITLB PREFETCH  REQUESTED:          0  ISSUED:          0  USEFUL:          0  USELESS:          0
ITLB USEFUL LOAD PREFETCHES:          0 PREFETCH ISSUED TO LOWER LEVEL:          0  ACCURACY: -nan
ITLB TIMELY PREFETCHES:          0 LATE PREFETCHES: 0 DROPPED PREFETCHES: 0
ITLB PREFETCHES SAME FILL-ORIGIN LEVEL: 0 DIFFERENT FILL-ORIGIN LEVEL: 0
ITLB AVERAGE MISS LATENCY: 15.5612 cycles
ITLB RQ	ACCESS:   38679275	FORWARD:          0	MERGED:    6386537	TO_CACHE:   32292738

DTLB TOTAL     ACCESS:   38350683  HIT:   35974779  MISS:    2375904  HIT %:    93.8048  MISS %:    6.19521   MPKI: 11.8795
DTLB LOAD TRANSLATION ACCESS:   38350683  HIT:   35974779  MISS:    2375904  HIT %:    93.8048  MISS %:    6.19521   MPKI: 11.8795
DTLB PREFETCH  REQUESTED:          0  ISSUED:          0  USEFUL:          0  USELESS:          0
DTLB USEFUL LOAD PREFETCHES:          0 PREFETCH ISSUED TO LOWER LEVEL:          0  ACCURACY: -nan
DTLB TIMELY PREFETCHES:          0 LATE PREFETCHES: 0 DROPPED PREFETCHES: 0
DTLB PREFETCHES SAME FILL-ORIGIN LEVEL: 0 DIFFERENT FILL-ORIGIN LEVEL: 0
DTLB AVERAGE MISS LATENCY: 14.033 cycles
DTLB RQ	ACCESS:   48865625	FORWARD:          0	MERGED:   10376617	TO_CACHE:   38489008

STLB TOTAL     ACCESS:    4993622  HIT:    4567517  MISS:     426105  HIT %:     91.467  MISS %:    8.53298   MPKI: 2.13053
STLB LOAD TRANSLATION ACCESS:    3137183  HIT:    2711667  MISS:     425516  HIT %:    86.4364  MISS %:    13.5636   MPKI: 2.12758
STLB TRANSLATION FROM L1D PREFETCHER ACCESS:    1856439  HIT:    1855850  MISS:        589  HIT %:    99.9683  MISS %:  0.0317274   MPKI: 0.002945
STLB PREFETCH  REQUESTED:          0  ISSUED:          0  USEFUL:        560  USELESS:         29
STLB USEFUL LOAD PREFETCHES:        560 PREFETCH ISSUED TO LOWER LEVEL:          0  ACCURACY: inf
STLB TIMELY PREFETCHES:        560 LATE PREFETCHES: 276 DROPPED PREFETCHES: 203
STLB PREFETCHES SAME FILL-ORIGIN LEVEL: 0 DIFFERENT FILL-ORIGIN LEVEL: 0
STLB AVERAGE MISS LATENCY: 40.4578 cycles
STLB RQ	ACCESS:    5533000	FORWARD:          0	MERGED:     538864	TO_CACHE:    4994136

STLB Hit, L1D data hit: 0
STLB Hit, L2C data hit: 0
STLB Hit, LLC data hit: 0
STLB Hit, LLC data miss: 0
STLB STLB hints to L2: 0
L1D TOTAL     ACCESS:   50669533  HIT:   48161025  MISS:    2508508  HIT %:    95.0493  MISS %:    4.95072   MPKI: 12.5425
L1D LOAD      ACCESS:   29025618  HIT:   26883996  MISS:    2141622  HIT %:    92.6216  MISS %:    7.37839   MPKI: 10.7081
L1D RFO       ACCESS:   19262642  HIT:   18903833  MISS:     358809  HIT %:    98.1373  MISS %:    1.86272   MPKI: 1.79404
L1D PREFETCH  ACCESS:    2381273  HIT:    2373196  MISS:       8077  HIT %:    99.6608  MISS %:   0.339188   MPKI: 0.040385
AGUS PREFETCH L1 MISS: 0
L1D PREFETCH  REQUESTED:    4839740  ISSUED:    4839740  USEFUL:       6829  USELESS:       1248
L1D USEFUL LOAD PREFETCHES:       6829 PREFETCH ISSUED TO LOWER LEVEL:      13173  ACCURACY: 51.8409
L1D TIMELY PREFETCHES:       6829 LATE PREFETCHES: 5080 DROPPED PREFETCHES: 223
L1D PREFETCHES SAME FILL-ORIGIN LEVEL: 13173 DIFFERENT FILL-ORIGIN LEVEL: 0
L1D AVERAGE MISS LATENCY: 625123 cycles
L1D RQ	ACCESS:   43694354	FORWARD:          0	MERGED:   14315864	TO_CACHE:   29168267
L1D WQ	ACCESS:   19987410	FORWARD:     215200	MERGED:     290052	TO_CACHE:   19697358
L1D PQ	ACCESS:    2443923	FORWARD:          0	MERGED:      43129	TO_CACHE:    2395817

L1D UNIQUE REGIONS ACCESSED: 0
L1D REGIONS CONFLICTS: 0
L1D Cross Page Prefetch Requests: 2171490
L1D Same Page Prefetch Requests: 428511
L1D ROI Sum of L1D PQ occupancy: 33344671
L1D PREFETCHES PUSHED FROM L2C: 0
L1I TOTAL     ACCESS:   37141929  HIT:   32273665  MISS:    4868264  HIT %:    86.8928  MISS %:    13.1072   MPKI: 24.3413
L1I LOAD      ACCESS:   37141929  HIT:   32273665  MISS:    4868264  HIT %:    86.8928  MISS %:    13.1072   MPKI: 24.3413
L1I PREFETCH  REQUESTED:          0  ISSUED:          0  USEFUL:          0  USELESS:          0
L1I USEFUL LOAD PREFETCHES:          0 PREFETCH ISSUED TO LOWER LEVEL:          0  ACCURACY: -nan
L1I TIMELY PREFETCHES:          0 LATE PREFETCHES: 0 DROPPED PREFETCHES: 0
L1I PREFETCHES SAME FILL-ORIGIN LEVEL: 0 DIFFERENT FILL-ORIGIN LEVEL: 0
L1I AVERAGE MISS LATENCY: 28.9321 cycles
L1I RQ	ACCESS:   57586720	FORWARD:          0	MERGED:   18907445	TO_CACHE:   38679275

BTB TOTAL     ACCESS:   23884119  HIT:   18824312  MISS:    5059807  HIT %:    78.8152  MISS %:    21.1848   MPKI: 25.299
BTB BRANCH_DIRECT_JUMP	ACCESS:    1754249  HIT:    1463659  MISS:     290590
BTB BRANCH_INDIRECT	ACCESS:    9786566  HIT:    7419553  MISS:    2367013
BTB BRANCH_CONDITIONAL	ACCESS:    5653971  HIT:    5194175  MISS:     459796
BTB BRANCH_DIRECT_CALL	ACCESS:    2532331  HIT:    1980726  MISS:     551605
BTB BRANCH_INDIRECT_CALL	ACCESS:     808488  HIT:     692902  MISS:     115586
BTB BRANCH_RETURN	ACCESS:    3348514  HIT:    2073297  MISS:    1275217
BTB BRANCH_OTHER ACCESS:          0  HIT:          0  MISS:          0

L2C TOTAL     ACCESS:    8909246  HIT:    5274025  MISS:    3635221  HIT %:    59.1972  MISS %:    40.8028   MPKI: 18.1761
L2C LOAD      ACCESS:    7004739  HIT:    3803412  MISS:    3201327  HIT %:    54.2977  MISS %:    45.7023   MPKI: 16.0066
L2C DATA LOAD MPKI: 5.36031
L2C INSTRUCTION LOAD MPKI: 10.6463
L2C RFO       ACCESS:     358793  HIT:     178837  MISS:     179956  HIT %:    49.8441  MISS %:    50.1559   MPKI: 0.89978
L2C PREFETCH  ACCESS:      13173  HIT:      10272  MISS:       2901  HIT %:    77.9777  MISS %:    22.0223   MPKI: 0.014505
AGUS PREFETCH L1 MISS: 0
L2C DATA PREFETCH MPKI: 0.014505
L2C INSTRUCTION PREFETCH MPKI: 0
L2C WRITEBACK ACCESS:     991609  HIT:     938903  MISS:      52706  HIT %:    94.6848  MISS %:     5.3152   MPKI: 0.26353
L2C LOAD TRANSLATION ACCESS:     539125  HIT:     341311  MISS:     197814  HIT %:    63.3083  MISS %:    36.6917   MPKI: 0.98907
L2C TRANSLATION FROM L1D PREFETCHER ACCESS:       1807  HIT:       1290  MISS:        517  HIT %:     71.389  MISS %:     28.611   MPKI: 0.002585
L2C PREFETCH  REQUESTED:          0  ISSUED:          0  USEFUL:       1205  USELESS:       2206
L2C USEFUL LOAD PREFETCHES:       1205 PREFETCH ISSUED TO LOWER LEVEL:       2901  ACCURACY: 41.5374
L2C TIMELY PREFETCHES:       1205 LATE PREFETCHES: 0 DROPPED PREFETCHES: 0
L2C PREFETCHES SAME FILL-ORIGIN LEVEL: 0 DIFFERENT FILL-ORIGIN LEVEL: 0
L2C AVERAGE MISS LATENCY: 43.4721 cycles
L2C RQ	ACCESS:    7904531	FORWARD:          0	MERGED:          0	TO_CACHE:    7904464
L2C WQ	ACCESS:     991609	FORWARD:         67	MERGED:          0	TO_CACHE:     991609
L2C PQ	ACCESS:      13173	FORWARD:          0	MERGED:          0	TO_CACHE:      13173

L2C Instructions Evicting Data 760248
L2C Translations Evicting Data 75419
L2C Data Evicting Data 452727
L2C Instructions Evicting Instructions 1256734
L2C Translations Evicting Instructions 112934
L2C Data Evicting Instructions 728882
L2C Instructions Evicting Translations 112283
L2C Translations Evicting Translations 9978
L2C Data Evicting Translations 73310
L2C Dense regions hint from L2: 0
PSCL5 TOTAL     ACCESS:     426307  HIT:     426307  MISS:          0  HIT %:        100  MISS %:          0   MPKI: 0
PSCL5 LOAD TRANSLATION ACCESS:     425240  HIT:     425240  MISS:          0  HIT %:        100  MISS %:          0   MPKI: 0
PSCL5 TRANSLATION FROM L1D PREFETCHER ACCESS:       1067  HIT:       1067  MISS:          0  HIT %:        100  MISS %:          0   MPKI: 0
PSCL5 PREFETCH  REQUESTED:          0  ISSUED:          0  USEFUL:          0  USELESS:          0
PSCL5 USEFUL LOAD PREFETCHES:          0 PREFETCH ISSUED TO LOWER LEVEL:          0  ACCURACY: -nan
PSCL5 TIMELY PREFETCHES:          0 LATE PREFETCHES: 0 DROPPED PREFETCHES: 0
PSCL5 PREFETCHES SAME FILL-ORIGIN LEVEL: 0 DIFFERENT FILL-ORIGIN LEVEL: 0

PSCL4 TOTAL     ACCESS:     407724  HIT:     406452  MISS:       1272  HIT %:     99.688  MISS %:   0.311976   MPKI: 0.00636
PSCL4 LOAD TRANSLATION ACCESS:     406729  HIT:     405457  MISS:       1272  HIT %:    99.6873  MISS %:   0.312739   MPKI: 0.00636
PSCL4 TRANSLATION FROM L1D PREFETCHER ACCESS:        995  HIT:        995  MISS:          0  HIT %:        100  MISS %:          0   MPKI: 0
PSCL4 PREFETCH  REQUESTED:          0  ISSUED:          0  USEFUL:          0  USELESS:          0
PSCL4 USEFUL LOAD PREFETCHES:          0 PREFETCH ISSUED TO LOWER LEVEL:          0  ACCURACY: -nan
PSCL4 TIMELY PREFETCHES:          0 LATE PREFETCHES: 0 DROPPED PREFETCHES: 0
PSCL4 PREFETCHES SAME FILL-ORIGIN LEVEL: 0 DIFFERENT FILL-ORIGIN LEVEL: 0

PSCL3 TOTAL     ACCESS:     422696  HIT:     419204  MISS:       3492  HIT %:    99.1739  MISS %:   0.826126   MPKI: 0.01746
PSCL3 LOAD TRANSLATION ACCESS:     421648  HIT:     418156  MISS:       3492  HIT %:    99.1718  MISS %:   0.828179   MPKI: 0.01746
PSCL3 TRANSLATION FROM L1D PREFETCHER ACCESS:       1048  HIT:       1048  MISS:          0  HIT %:        100  MISS %:          0   MPKI: 0
PSCL3 PREFETCH  REQUESTED:          0  ISSUED:          0  USEFUL:          0  USELESS:          0
PSCL3 USEFUL LOAD PREFETCHES:          0 PREFETCH ISSUED TO LOWER LEVEL:          0  ACCURACY: -nan
PSCL3 TIMELY PREFETCHES:          0 LATE PREFETCHES: 0 DROPPED PREFETCHES: 0
PSCL3 PREFETCHES SAME FILL-ORIGIN LEVEL: 0 DIFFERENT FILL-ORIGIN LEVEL: 0

PSCL2 TOTAL     ACCESS:     426153  HIT:     316375  MISS:     109778  HIT %:    74.2398  MISS %:    25.7602   MPKI: 0.54889
PSCL2 LOAD TRANSLATION ACCESS:     425862  HIT:     316084  MISS:     109778  HIT %:    74.2222  MISS %:    25.7778   MPKI: 0.54889
PSCL2 TRANSLATION FROM L1D PREFETCHER ACCESS:        291  HIT:        291  MISS:          0  HIT %:        100  MISS %:          0   MPKI: 0
PSCL2 PREFETCH  REQUESTED:          0  ISSUED:          0  USEFUL:          0  USELESS:          0
PSCL2 USEFUL LOAD PREFETCHES:          0 PREFETCH ISSUED TO LOWER LEVEL:          0  ACCURACY: -nan
PSCL2 TIMELY PREFETCHES:          0 LATE PREFETCHES: 0 DROPPED PREFETCHES: 0
PSCL2 PREFETCHES SAME FILL-ORIGIN LEVEL: 0 DIFFERENT FILL-ORIGIN LEVEL: 0

LLC TOTAL     ACCESS:    4048718  HIT:    3718513  MISS:     330205  HIT %:    91.8442  MISS %:    8.15579   MPKI: 1.65102
LLC LOAD      ACCESS:    3201325  HIT:    2944580  MISS:     256745  HIT %:      91.98  MISS %:    8.01996   MPKI: 1.28373
LLC RFO       ACCESS:     179956  HIT:     117918  MISS:      62038  HIT %:     65.526  MISS %:     34.474   MPKI: 0.31019
LLC PREFETCH  ACCESS:       2899  HIT:       2794  MISS:        105  HIT %:    96.3781  MISS %:    3.62194   MPKI: 0.000525
AGUS PREFETCH L1 MISS: 0
LLC WRITEBACK ACCESS:     466207  HIT:     461072  MISS:       5135  HIT %:    98.8986  MISS %:    1.10144   MPKI: 0.025675
LLC LOAD TRANSLATION ACCESS:     197814  HIT:     191652  MISS:       6162  HIT %:     96.885  MISS %:    3.11505   MPKI: 0.03081
LLC TRANSLATION FROM L1D PREFETCHER ACCESS:        517  HIT:        497  MISS:         20  HIT %:    96.1315  MISS %:    3.86847   MPKI: 0.0001
LLC PREFETCH  REQUESTED:          0  ISSUED:          0  USEFUL:         30  USELESS:         80
LLC USEFUL LOAD PREFETCHES:         30 PREFETCH ISSUED TO LOWER LEVEL:        105  ACCURACY: 28.5714
LLC TIMELY PREFETCHES:         30 LATE PREFETCHES: 0 DROPPED PREFETCHES: 0
LLC PREFETCHES SAME FILL-ORIGIN LEVEL: 0 DIFFERENT FILL-ORIGIN LEVEL: 0
LLC AVERAGE MISS LATENCY: 152.999 cycles
LLC RQ	ACCESS:    3579614	FORWARD:          0	MERGED:          0	TO_CACHE:    3579612
LLC WQ	ACCESS:     466207	FORWARD:          4	MERGED:          0	TO_CACHE:     466207
LLC PQ	ACCESS:       2901	FORWARD:          0	MERGED:          0	TO_CACHE:       2899

LLC Dense regions hint to LLC: 0

RAW hits: 2676809
Loads Generated: 46371163
Loads sent to L1D: 43694354
Stores Generated: 19987388
Stores sent to L1D: 19987410
Major fault: 0 Minor fault: 7361
Allocated PAGES: 7361
Completed 
Accuracy : 86.5368
Number of unique groups: 3729740

DRAM Statistics
 CHANNEL 0
 RQ ROW_BUFFER_HIT:      59584  ROW_BUFFER_MISS:     265486
 DBUS_CONGESTED:        129
 WQ ROW_BUFFER_HIT:      34091  ROW_BUFFER_MISS:     185040  FULL:          0

 AVG_CONGESTED_CYCLE: 4
 All warmup complete: 2
Channel 0 Bank busy for read cycles: 0
Channel 0 Bank busy for write cycles: 0
Channel 0
Rank 0
0banks busy for read cycles: 428833322
0banks busy for write cycles: 128138
1banks busy for read cycles: 31152928
1banks busy for write cycles: 18565952
2banks busy for read cycles: 3914080
2banks busy for write cycles: 4378881
3banks busy for read cycles: 477428
3banks busy for write cycles: 1366127
4banks busy for read cycles: 212557
4banks busy for write cycles: 565671
5banks busy for read cycles: 80304
5banks busy for write cycles: 289108
6banks busy for read cycles: 47415
6banks busy for write cycles: 177072
7banks busy for read cycles: 38056
7banks busy for write cycles: 175159
8banks busy for read cycles: 74879
8banks busy for write cycles: 264896

CPU 0 Branch Prediction Accuracy: 98.8611% MPKI: 2.07212 Average ROB Occupancy at Mispredict: 13.668
Branch types
NOT_BRANCH: 163610883 81.8054%
BRANCH_DIRECT_JUMP: 1754249 0.877124%
BRANCH_INDIRECT: 9786566 4.89328%
BRANCH_CONDITIONAL: 18158639 9.07932%
BRANCH_DIRECT_CALL: 2532331 1.26617%
BRANCH_INDIRECT_CALL: 808488 0.404244%
BRANCH_RETURN: 3348514 1.67426%
BRANCH_OTHER: 0 0%

DRAM PAGES: 1048576
Allocated PAGES: 7361
