
*** ChampSim Multicore Out-of-Order Simulator ***

Warmup Instructions: 50000000
Simulation Instructions: 200000000
Number of CPUs: 1
LLC sets: 2048
LLC ways: 16
Off-chip DRAM Size: 4096 MB Channels: 1 Width: 64-bit Data Rate: 6400 MT/s
CPU 0 runs traces/spec2k17/server_028.champsimtrace.xz
.xz
BTB has LRU replacement policy
ITLB has LRU replacement policy
DTLB has LRU replacement policy
STLB has LRU replacement policy
L1I has LRU replacement policy
L1D has LRU replacement policy
Initialize SRRIP state for L2C
Initialize DRRIP state for LLC
Heartbeat CPU 0 instructions: 10000001 cycles: 2844452 heartbeat IPC: 3.51562 cumulative IPC: 3.51562 (Simulation time: 0 hr 0 min 38 sec) 
Heartbeat CPU 0 instructions: 20000002 cycles: 5678254 heartbeat IPC: 3.52883 cumulative IPC: 3.52221 (Simulation time: 0 hr 1 min 16 sec) 
Heartbeat CPU 0 instructions: 30000002 cycles: 8512466 heartbeat IPC: 3.52832 cumulative IPC: 3.52424 (Simulation time: 0 hr 1 min 51 sec) 
Heartbeat CPU 0 instructions: 40000001 cycles: 11347722 heartbeat IPC: 3.52702 cumulative IPC: 3.52494 (Simulation time: 0 hr 2 min 27 sec) 
Heartbeat CPU 0 instructions: 50000003 cycles: 14184500 heartbeat IPC: 3.52513 cumulative IPC: 3.52497 (Simulation time: 0 hr 3 min 1 sec) 

Warmup complete CPU 0 instructions: 50000003 cycles: 14184500 (Simulation time: 0 hr 3 min 1 sec) 

Heartbeat CPU 0 instructions: 60000000 cycles: 46491113 heartbeat IPC: 0.309534 cumulative IPC: 0.309534 (Simulation time: 0 hr 4 min 4 sec) 
Heartbeat CPU 0 instructions: 70000000 cycles: 78894177 heartbeat IPC: 0.308613 cumulative IPC: 0.309073 (Simulation time: 0 hr 5 min 3 sec) 
Heartbeat CPU 0 instructions: 80000000 cycles: 111355230 heartbeat IPC: 0.308061 cumulative IPC: 0.308735 (Simulation time: 0 hr 6 min 3 sec) 
*** Reached end of trace for Core: 0 Repeating trace: traces/spec2k17/server_028.champsimtrace.xz
Heartbeat CPU 0 instructions: 90000001 cycles: 143497738 heartbeat IPC: 0.311115 cumulative IPC: 0.309326 (Simulation time: 0 hr 6 min 58 sec) 
Heartbeat CPU 0 instructions: 100000001 cycles: 175519709 heartbeat IPC: 0.312286 cumulative IPC: 0.309914 (Simulation time: 0 hr 7 min 56 sec) 
Heartbeat CPU 0 instructions: 110000000 cycles: 207860564 heartbeat IPC: 0.309206 cumulative IPC: 0.309796 (Simulation time: 0 hr 8 min 54 sec) 
Heartbeat CPU 0 instructions: 120000003 cycles: 239934606 heartbeat IPC: 0.311779 cumulative IPC: 0.310077 (Simulation time: 0 hr 9 min 51 sec) 
Heartbeat CPU 0 instructions: 130000002 cycles: 272223455 heartbeat IPC: 0.309704 cumulative IPC: 0.310031 (Simulation time: 0 hr 10 min 48 sec) 
Heartbeat CPU 0 instructions: 140000001 cycles: 304356299 heartbeat IPC: 0.311208 cumulative IPC: 0.310161 (Simulation time: 0 hr 11 min 51 sec) 
Heartbeat CPU 0 instructions: 150000002 cycles: 336234606 heartbeat IPC: 0.313693 cumulative IPC: 0.310511 (Simulation time: 0 hr 12 min 54 sec) 
Heartbeat CPU 0 instructions: 160000000 cycles: 368177024 heartbeat IPC: 0.313063 cumulative IPC: 0.310741 (Simulation time: 0 hr 13 min 58 sec) 
Heartbeat CPU 0 instructions: 170000001 cycles: 399803743 heartbeat IPC: 0.316188 cumulative IPC: 0.311188 (Simulation time: 0 hr 15 min 4 sec) 
*** Reached end of trace for Core: 0 Repeating trace: traces/spec2k17/server_028.champsimtrace.xz
Heartbeat CPU 0 instructions: 180000002 cycles: 431615451 heartbeat IPC: 0.31435 cumulative IPC: 0.311429 (Simulation time: 0 hr 16 min 7 sec) 
Heartbeat CPU 0 instructions: 190000000 cycles: 463375189 heartbeat IPC: 0.314864 cumulative IPC: 0.311672 (Simulation time: 0 hr 17 min 7 sec) 
Heartbeat CPU 0 instructions: 200000001 cycles: 495149483 heartbeat IPC: 0.31472 cumulative IPC: 0.311873 (Simulation time: 0 hr 18 min 8 sec) 
Heartbeat CPU 0 instructions: 210000002 cycles: 527026174 heartbeat IPC: 0.313709 cumulative IPC: 0.311987 (Simulation time: 0 hr 19 min 8 sec) 
Heartbeat CPU 0 instructions: 220000000 cycles: 558999308 heartbeat IPC: 0.312763 cumulative IPC: 0.312033 (Simulation time: 0 hr 20 min 10 sec) 
Heartbeat CPU 0 instructions: 230000000 cycles: 590734111 heartbeat IPC: 0.315111 cumulative IPC: 0.312202 (Simulation time: 0 hr 21 min 13 sec) 
Heartbeat CPU 0 instructions: 240000000 cycles: 622514371 heartbeat IPC: 0.314661 cumulative IPC: 0.312331 (Simulation time: 0 hr 22 min 15 sec) 
Heartbeat CPU 0 instructions: 250000000 cycles: 654420023 heartbeat IPC: 0.313424 cumulative IPC: 0.312385 (Simulation time: 0 hr 23 min 19 sec) 
Finished CPU 0 instructions: 200000003 cycles: 640235534 cumulative IPC: 0.312385 (Simulation time: 0 hr 23 min 19 sec) 

ChampSim completed all CPUs

Region of Interest Statistics

CPU 0 cumulative IPC: 0.312385 instructions: 200000003 cycles: 640235534
ITLB TOTAL     ACCESS:   35603908  HIT:   33414701  MISS:    2189207  HIT %:    93.8512  MISS %:    6.14878   MPKI: 10.946
ITLB LOAD TRANSLATION ACCESS:   35603908  HIT:   33414701  MISS:    2189207  HIT %:    93.8512  MISS %:    6.14878   MPKI: 10.946
ITLB PREFETCH  REQUESTED:          0  ISSUED:          0  USEFUL:          0  USELESS:          0
ITLB USEFUL LOAD PREFETCHES:          0 PREFETCH ISSUED TO LOWER LEVEL:          0  ACCURACY: -nan
ITLB TIMELY PREFETCHES:          0 LATE PREFETCHES: 0 DROPPED PREFETCHES: 0
ITLB PREFETCHES SAME FILL-ORIGIN LEVEL: 0 DIFFERENT FILL-ORIGIN LEVEL: 0
ITLB AVERAGE MISS LATENCY: 9.29358 cycles
ITLB RQ	ACCESS:   41779107	FORWARD:          0	MERGED:    5649533	TO_CACHE:   36129574

DTLB TOTAL     ACCESS:   45103753  HIT:   43021563  MISS:    2082190  HIT %:    95.3836  MISS %:    4.61645   MPKI: 10.4109
DTLB LOAD TRANSLATION ACCESS:   45103753  HIT:   43021563  MISS:    2082190  HIT %:    95.3836  MISS %:    4.61645   MPKI: 10.4109
DTLB PREFETCH  REQUESTED:          0  ISSUED:          0  USEFUL:          0  USELESS:          0
DTLB USEFUL LOAD PREFETCHES:          0 PREFETCH ISSUED TO LOWER LEVEL:          0  ACCURACY: -nan
DTLB TIMELY PREFETCHES:          0 LATE PREFETCHES: 0 DROPPED PREFETCHES: 0
DTLB PREFETCHES SAME FILL-ORIGIN LEVEL: 0 DIFFERENT FILL-ORIGIN LEVEL: 0
DTLB AVERAGE MISS LATENCY: 10.1239 cycles
DTLB RQ	ACCESS:   59701063	FORWARD:          0	MERGED:   14545565	TO_CACHE:   45155498

STLB TOTAL     ACCESS:   10453482  HIT:   10374917  MISS:      78565  HIT %:    99.2484  MISS %:   0.751568   MPKI: 0.392825
STLB LOAD TRANSLATION ACCESS:    4271397  HIT:    4195671  MISS:      75726  HIT %:    98.2271  MISS %:    1.77286   MPKI: 0.37863
STLB TRANSLATION FROM L1D PREFETCHER ACCESS:    6182085  HIT:    6179246  MISS:       2839  HIT %:    99.9541  MISS %:   0.045923   MPKI: 0.014195
STLB PREFETCH  REQUESTED:          0  ISSUED:          0  USEFUL:       2824  USELESS:         15
STLB USEFUL LOAD PREFETCHES:       2824 PREFETCH ISSUED TO LOWER LEVEL:          0  ACCURACY: inf
STLB TIMELY PREFETCHES:       2824 LATE PREFETCHES: 1518 DROPPED PREFETCHES: 2160
STLB PREFETCHES SAME FILL-ORIGIN LEVEL: 0 DIFFERENT FILL-ORIGIN LEVEL: 0
STLB AVERAGE MISS LATENCY: 46.0944 cycles
STLB RQ	ACCESS:   12503081	FORWARD:          0	MERGED:    2044553	TO_CACHE:   10458528

STLB Hit, L1D data hit: 0
STLB Hit, L2C data hit: 0
STLB Hit, LLC data hit: 0
STLB Hit, LLC data miss: 0
STLB STLB hints to L2: 0
L1D TOTAL     ACCESS:   65184370  HIT:   59603986  MISS:    5580384  HIT %:    91.4391  MISS %:    8.56092   MPKI: 27.9019
L1D LOAD      ACCESS:   33497961  HIT:   29998795  MISS:    3499166  HIT %:    89.5541  MISS %:    10.4459   MPKI: 17.4958
L1D RFO       ACCESS:   24336353  HIT:   23152768  MISS:    1183585  HIT %:    95.1366  MISS %:    4.86344   MPKI: 5.91792
L1D PREFETCH  ACCESS:    7350056  HIT:    6452423  MISS:     897633  HIT %:    87.7874  MISS %:    12.2126   MPKI: 4.48816
AGUS PREFETCH L1 MISS: 0
L1D PREFETCH  REQUESTED:   16723322  ISSUED:   16723313  USEFUL:     883815  USELESS:      13818
L1D USEFUL LOAD PREFETCHES:     883815 PREFETCH ISSUED TO LOWER LEVEL:    1485287  ACCURACY: 59.5047
L1D TIMELY PREFETCHES:     883815 LATE PREFETCHES: 584560 DROPPED PREFETCHES: 2217
L1D PREFETCHES SAME FILL-ORIGIN LEVEL: 1485287 DIFFERENT FILL-ORIGIN LEVEL: 0
L1D AVERAGE MISS LATENCY: 4.06359e+07 cycles
L1D RQ	ACCESS:   46064694	FORWARD:          0	MERGED:   12125594	TO_CACHE:   33625414
L1D WQ	ACCESS:   26217180	FORWARD:     324075	MERGED:     141531	TO_CACHE:   26075649
L1D PQ	ACCESS:    8491629	FORWARD:          0	MERGED:     249556	TO_CACHE:    8231684

L1D UNIQUE REGIONS ACCESSED: 0
L1D REGIONS CONFLICTS: 0
L1D Cross Page Prefetch Requests: 5909169
L1D Same Page Prefetch Requests: 2600946
L1D ROI Sum of L1D PQ occupancy: 114062775
L1D PREFETCHES PUSHED FROM L2C: 0
L1I TOTAL     ACCESS:   40143617  HIT:   29059917  MISS:   11083700  HIT %:    72.3899  MISS %:    27.6101   MPKI: 55.4185
L1I LOAD      ACCESS:   40143617  HIT:   29059917  MISS:   11083700  HIT %:    72.3899  MISS %:    27.6101   MPKI: 55.4185
L1I PREFETCH  REQUESTED:          0  ISSUED:          0  USEFUL:          0  USELESS:          0
L1I USEFUL LOAD PREFETCHES:          0 PREFETCH ISSUED TO LOWER LEVEL:          0  ACCURACY: -nan
L1I TIMELY PREFETCHES:          0 LATE PREFETCHES: 0 DROPPED PREFETCHES: 0
L1I PREFETCHES SAME FILL-ORIGIN LEVEL: 0 DIFFERENT FILL-ORIGIN LEVEL: 0
L1I AVERAGE MISS LATENCY: 15.5028 cycles
L1I RQ	ACCESS:   58373510	FORWARD:          0	MERGED:   16594403	TO_CACHE:   41779107

BTB TOTAL     ACCESS:   30542458  HIT:   18336623  MISS:   12205835  HIT %:    60.0365  MISS %:    39.9635   MPKI: 61.0292
BTB BRANCH_DIRECT_JUMP	ACCESS:    2010403  HIT:    1225655  MISS:     784748
BTB BRANCH_INDIRECT	ACCESS:   11931802  HIT:    7220486  MISS:    4711316
BTB BRANCH_CONDITIONAL	ACCESS:    7548039  HIT:    6326083  MISS:    1221956
BTB BRANCH_DIRECT_CALL	ACCESS:    3806012  HIT:    1828717  MISS:    1977295
BTB BRANCH_INDIRECT_CALL	ACCESS:     720088  HIT:     358904  MISS:     361184
BTB BRANCH_RETURN	ACCESS:    4526114  HIT:    1376778  MISS:    3149336
BTB BRANCH_OTHER ACCESS:          0  HIT:          0  MISS:          0

L2C TOTAL     ACCESS:   19052074  HIT:   18058137  MISS:     993937  HIT %:    94.7831  MISS %:    5.21695   MPKI: 4.96968
L2C LOAD      ACCESS:   13998298  HIT:   13191767  MISS:     806531  HIT %:    94.2384  MISS %:    5.76164   MPKI: 4.03265
L2C DATA LOAD MPKI: 1.42869
L2C INSTRUCTION LOAD MPKI: 2.60396
L2C RFO       ACCESS:    1180491  HIT:    1111699  MISS:      68792  HIT %:    94.1726  MISS %:    5.82741   MPKI: 0.34396
L2C PREFETCH  ACCESS:    1485284  HIT:    1429273  MISS:      56011  HIT %:    96.2289  MISS %:    3.77106   MPKI: 0.280055
AGUS PREFETCH L1 MISS: 0
L2C DATA PREFETCH MPKI: 0.280055
L2C INSTRUCTION PREFETCH MPKI: 0
L2C WRITEBACK ACCESS:    2271735  HIT:    2248697  MISS:      23038  HIT %:    98.9859  MISS %:    1.01411   MPKI: 0.11519
L2C LOAD TRANSLATION ACCESS:     106886  HIT:      68764  MISS:      38122  HIT %:     64.334  MISS %:     35.666   MPKI: 0.19061
L2C TRANSLATION FROM L1D PREFETCHER ACCESS:       9380  HIT:       7937  MISS:       1443  HIT %:    84.6162  MISS %:    15.3838   MPKI: 0.007215
L2C PREFETCH  REQUESTED:          0  ISSUED:          0  USEFUL:       6500  USELESS:      50902
L2C USEFUL LOAD PREFETCHES:       6500 PREFETCH ISSUED TO LOWER LEVEL:      56011  ACCURACY: 11.6049
L2C TIMELY PREFETCHES:       6500 LATE PREFETCHES: 0 DROPPED PREFETCHES: 0
L2C PREFETCHES SAME FILL-ORIGIN LEVEL: 0 DIFFERENT FILL-ORIGIN LEVEL: 0
L2C AVERAGE MISS LATENCY: 43.8278 cycles
L2C RQ	ACCESS:   15295062	FORWARD:          0	MERGED:          0	TO_CACHE:   15295055
L2C WQ	ACCESS:    2271735	FORWARD:         10	MERGED:          0	TO_CACHE:    2271735
L2C PQ	ACCESS:    1485287	FORWARD:          0	MERGED:          0	TO_CACHE:    1485284

L2C Instructions Evicting Data 175262
L2C Translations Evicting Data 25764
L2C Data Evicting Data 224505
L2C Instructions Evicting Instructions 335561
L2C Translations Evicting Instructions 9912
L2C Data Evicting Instructions 160529
L2C Instructions Evicting Translations 9970
L2C Translations Evicting Translations 3889
L2C Data Evicting Translations 25507
L2C Dense regions hint from L2: 0
PSCL5 TOTAL     ACCESS:      80723  HIT:      80723  MISS:          0  HIT %:        100  MISS %:          0   MPKI: 0
PSCL5 LOAD TRANSLATION ACCESS:      74208  HIT:      74208  MISS:          0  HIT %:        100  MISS %:          0   MPKI: 0
PSCL5 TRANSLATION FROM L1D PREFETCHER ACCESS:       6515  HIT:       6515  MISS:          0  HIT %:        100  MISS %:          0   MPKI: 0
PSCL5 PREFETCH  REQUESTED:          0  ISSUED:          0  USEFUL:          0  USELESS:          0
PSCL5 USEFUL LOAD PREFETCHES:          0 PREFETCH ISSUED TO LOWER LEVEL:          0  ACCURACY: -nan
PSCL5 TIMELY PREFETCHES:          0 LATE PREFETCHES: 0 DROPPED PREFETCHES: 0
PSCL5 PREFETCHES SAME FILL-ORIGIN LEVEL: 0 DIFFERENT FILL-ORIGIN LEVEL: 0

PSCL4 TOTAL     ACCESS:      78842  HIT:      78117  MISS:        725  HIT %:    99.0804  MISS %:   0.919561   MPKI: 0.003625
PSCL4 LOAD TRANSLATION ACCESS:      72790  HIT:      72065  MISS:        725  HIT %:     99.004  MISS %:   0.996016   MPKI: 0.003625
PSCL4 TRANSLATION FROM L1D PREFETCHER ACCESS:       6052  HIT:       6052  MISS:          0  HIT %:        100  MISS %:          0   MPKI: 0
PSCL4 PREFETCH  REQUESTED:          0  ISSUED:          0  USEFUL:          0  USELESS:          0
PSCL4 USEFUL LOAD PREFETCHES:          0 PREFETCH ISSUED TO LOWER LEVEL:          0  ACCURACY: -nan
PSCL4 TIMELY PREFETCHES:          0 LATE PREFETCHES: 0 DROPPED PREFETCHES: 0
PSCL4 PREFETCHES SAME FILL-ORIGIN LEVEL: 0 DIFFERENT FILL-ORIGIN LEVEL: 0

PSCL3 TOTAL     ACCESS:      80346  HIT:      79621  MISS:        725  HIT %:    99.0977  MISS %:   0.902347   MPKI: 0.003625
PSCL3 LOAD TRANSLATION ACCESS:      74006  HIT:      73281  MISS:        725  HIT %:    99.0203  MISS %:    0.97965   MPKI: 0.003625
PSCL3 TRANSLATION FROM L1D PREFETCHER ACCESS:       6340  HIT:       6340  MISS:          0  HIT %:        100  MISS %:          0   MPKI: 0
PSCL3 PREFETCH  REQUESTED:          0  ISSUED:          0  USEFUL:          0  USELESS:          0
PSCL3 USEFUL LOAD PREFETCHES:          0 PREFETCH ISSUED TO LOWER LEVEL:          0  ACCURACY: -nan
PSCL3 TIMELY PREFETCHES:          0 LATE PREFETCHES: 0 DROPPED PREFETCHES: 0
PSCL3 PREFETCHES SAME FILL-ORIGIN LEVEL: 0 DIFFERENT FILL-ORIGIN LEVEL: 0

PSCL2 TOTAL     ACCESS:      78860  HIT:      45958  MISS:      32902  HIT %:     58.278  MISS %:     41.722   MPKI: 0.16451
PSCL2 LOAD TRANSLATION ACCESS:      75758  HIT:      42856  MISS:      32902  HIT %:    56.5696  MISS %:    43.4304   MPKI: 0.16451
PSCL2 TRANSLATION FROM L1D PREFETCHER ACCESS:       3102  HIT:       3102  MISS:          0  HIT %:        100  MISS %:          0   MPKI: 0
PSCL2 PREFETCH  REQUESTED:          0  ISSUED:          0  USEFUL:          0  USELESS:          0
PSCL2 USEFUL LOAD PREFETCHES:          0 PREFETCH ISSUED TO LOWER LEVEL:          0  ACCURACY: -nan
PSCL2 TIMELY PREFETCHES:          0 LATE PREFETCHES: 0 DROPPED PREFETCHES: 0
PSCL2 PREFETCHES SAME FILL-ORIGIN LEVEL: 0 DIFFERENT FILL-ORIGIN LEVEL: 0

LLC TOTAL     ACCESS:    1060621  HIT:     953460  MISS:     107161  HIT %:    89.8964  MISS %:    10.1036   MPKI: 0.535805
LLC LOAD      ACCESS:     806531  HIT:     711378  MISS:      95153  HIT %:    88.2022  MISS %:    11.7978   MPKI: 0.475765
LLC RFO       ACCESS:      68791  HIT:      60747  MISS:       8044  HIT %:    88.3066  MISS %:    11.6934   MPKI: 0.04022
LLC PREFETCH  ACCESS:      56011  HIT:      55345  MISS:        666  HIT %:    98.8109  MISS %:    1.18905   MPKI: 0.00333
AGUS PREFETCH L1 MISS: 0
LLC WRITEBACK ACCESS:      89723  HIT:      89376  MISS:        347  HIT %:    99.6133  MISS %:   0.386746   MPKI: 0.001735
LLC LOAD TRANSLATION ACCESS:      38122  HIT:      35284  MISS:       2838  HIT %:    92.5555  MISS %:    7.44452   MPKI: 0.01419
LLC TRANSLATION FROM L1D PREFETCHER ACCESS:       1443  HIT:       1330  MISS:        113  HIT %:    92.1691  MISS %:    7.83091   MPKI: 0.000565
LLC PREFETCH  REQUESTED:          0  ISSUED:          0  USEFUL:         83  USELESS:        526
LLC USEFUL LOAD PREFETCHES:         83 PREFETCH ISSUED TO LOWER LEVEL:        666  ACCURACY: 12.4625
LLC TIMELY PREFETCHES:         83 LATE PREFETCHES: 0 DROPPED PREFETCHES: 0
LLC PREFETCHES SAME FILL-ORIGIN LEVEL: 0 DIFFERENT FILL-ORIGIN LEVEL: 0
LLC AVERAGE MISS LATENCY: 134.657 cycles
LLC RQ	ACCESS:     914888	FORWARD:          0	MERGED:          0	TO_CACHE:     914887
LLC WQ	ACCESS:      89723	FORWARD:          1	MERGED:          0	TO_CACHE:      89723
LLC PQ	ACCESS:      56011	FORWARD:          0	MERGED:          0	TO_CACHE:      56011

LLC Dense regions hint to LLC: 0

RAW hits: 1419570
Loads Generated: 47484266
Loads sent to L1D: 46064694
Stores Generated: 26217178
Stores sent to L1D: 26217180
Major fault: 0 Minor fault: 6256
Allocated PAGES: 6256
Completed 
Accuracy : 94.057
Number of unique groups: 1271551

DRAM Statistics
 CHANNEL 0
 RQ ROW_BUFFER_HIT:      40654  ROW_BUFFER_MISS:      66160
 DBUS_CONGESTED:         29
 WQ ROW_BUFFER_HIT:       1447  ROW_BUFFER_MISS:       7864  FULL:          0

 AVG_CONGESTED_CYCLE: 4
 All warmup complete: 2
Channel 0 Bank busy for read cycles: 0
Channel 0 Bank busy for write cycles: 0
Channel 0
Rank 0
0banks busy for read cycles: 630822968
0banks busy for write cycles: 6359
1banks busy for read cycles: 6503508
1banks busy for write cycles: 1018500
2banks busy for read cycles: 830675
2banks busy for write cycles: 163032
3banks busy for read cycles: 262563
3banks busy for write cycles: 61127
4banks busy for read cycles: 139025
4banks busy for write cycles: 33889
5banks busy for read cycles: 104968
5banks busy for write cycles: 9565
6banks busy for read cycles: 89897
6banks busy for write cycles: 2565
7banks busy for read cycles: 88619
7banks busy for write cycles: 1233
8banks busy for read cycles: 95493
8banks busy for write cycles: 1549

CPU 0 Branch Prediction Accuracy: 99.7758% MPKI: 0.40526 Average ROB Occupancy at Mispredict: 44.0407
Branch types
NOT_BRANCH: 163841120 81.9206%
BRANCH_DIRECT_JUMP: 2010403 1.0052%
BRANCH_INDIRECT: 11931802 5.9659%
BRANCH_CONDITIONAL: 13164452 6.58223%
BRANCH_DIRECT_CALL: 3806012 1.90301%
BRANCH_INDIRECT_CALL: 720088 0.360044%
BRANCH_RETURN: 4526114 2.26306%
BRANCH_OTHER: 0 0%

DRAM PAGES: 1048576
Allocated PAGES: 6256
