
*** ChampSim Multicore Out-of-Order Simulator ***

Warmup Instructions: 50000000
Simulation Instructions: 200000000
Number of CPUs: 1
LLC sets: 2048
LLC ways: 16
Off-chip DRAM Size: 4096 MB Channels: 1 Width: 64-bit Data Rate: 6400 MT/s
CPU 0 runs traces/spec2k17/server_026.champsimtrace.xz
.xz
BTB has LRU replacement policy
ITLB has LRU replacement policy
DTLB has LRU replacement policy
STLB has LRU replacement policy
L1I has LRU replacement policy
L1D has LRU replacement policy
Initialize SRRIP state for L2C
Initialize DRRIP state for LLC
Heartbeat CPU 0 instructions: 10000003 cycles: 2823074 heartbeat IPC: 3.54224 cumulative IPC: 3.54224 (Simulation time: 0 hr 0 min 38 sec) 
Heartbeat CPU 0 instructions: 20000001 cycles: 5641038 heartbeat IPC: 3.54866 cumulative IPC: 3.54545 (Simulation time: 0 hr 1 min 17 sec) 
Heartbeat CPU 0 instructions: 30000002 cycles: 8457458 heartbeat IPC: 3.55061 cumulative IPC: 3.54717 (Simulation time: 0 hr 1 min 52 sec) 
Heartbeat CPU 0 instructions: 40000001 cycles: 11275290 heartbeat IPC: 3.54883 cumulative IPC: 3.54758 (Simulation time: 0 hr 2 min 31 sec) 
Heartbeat CPU 0 instructions: 50000000 cycles: 14091197 heartbeat IPC: 3.55125 cumulative IPC: 3.54831 (Simulation time: 0 hr 3 min 12 sec) 

Warmup complete CPU 0 instructions: 50000004 cycles: 14091198 (Simulation time: 0 hr 3 min 12 sec) 

Heartbeat CPU 0 instructions: 60000001 cycles: 46187719 heartbeat IPC: 0.31156 cumulative IPC: 0.31156 (Simulation time: 0 hr 4 min 12 sec) 
*** Reached end of trace for Core: 0 Repeating trace: traces/spec2k17/server_026.champsimtrace.xz
Heartbeat CPU 0 instructions: 70000000 cycles: 78141409 heartbeat IPC: 0.312953 cumulative IPC: 0.312255 (Simulation time: 0 hr 5 min 9 sec) 
Heartbeat CPU 0 instructions: 80000000 cycles: 110010952 heartbeat IPC: 0.313779 cumulative IPC: 0.312761 (Simulation time: 0 hr 6 min 4 sec) 
Heartbeat CPU 0 instructions: 90000003 cycles: 141928699 heartbeat IPC: 0.313305 cumulative IPC: 0.312897 (Simulation time: 0 hr 7 min 1 sec) 
Heartbeat CPU 0 instructions: 100000000 cycles: 173892445 heartbeat IPC: 0.312854 cumulative IPC: 0.312889 (Simulation time: 0 hr 7 min 54 sec) 
Heartbeat CPU 0 instructions: 110000000 cycles: 205756531 heartbeat IPC: 0.313833 cumulative IPC: 0.313046 (Simulation time: 0 hr 9 min 0 sec) 
Heartbeat CPU 0 instructions: 120000002 cycles: 237760811 heartbeat IPC: 0.312458 cumulative IPC: 0.312962 (Simulation time: 0 hr 10 min 6 sec) 
*** Reached end of trace for Core: 0 Repeating trace: traces/spec2k17/server_026.champsimtrace.xz
Heartbeat CPU 0 instructions: 130000002 cycles: 269623504 heartbeat IPC: 0.313847 cumulative IPC: 0.313072 (Simulation time: 0 hr 11 min 2 sec) 
Heartbeat CPU 0 instructions: 140000002 cycles: 301464920 heartbeat IPC: 0.314056 cumulative IPC: 0.313181 (Simulation time: 0 hr 12 min 4 sec) 
Heartbeat CPU 0 instructions: 150000001 cycles: 333315735 heartbeat IPC: 0.313964 cumulative IPC: 0.313259 (Simulation time: 0 hr 12 min 59 sec) 
Heartbeat CPU 0 instructions: 160000001 cycles: 365150239 heartbeat IPC: 0.314125 cumulative IPC: 0.313338 (Simulation time: 0 hr 13 min 57 sec) 
Heartbeat CPU 0 instructions: 170000000 cycles: 397057025 heartbeat IPC: 0.313413 cumulative IPC: 0.313344 (Simulation time: 0 hr 14 min 55 sec) 
Heartbeat CPU 0 instructions: 180000003 cycles: 428890253 heartbeat IPC: 0.314137 cumulative IPC: 0.313405 (Simulation time: 0 hr 15 min 54 sec) 
*** Reached end of trace for Core: 0 Repeating trace: traces/spec2k17/server_026.champsimtrace.xz
Heartbeat CPU 0 instructions: 190000000 cycles: 460688870 heartbeat IPC: 0.314479 cumulative IPC: 0.313481 (Simulation time: 0 hr 16 min 57 sec) 
Heartbeat CPU 0 instructions: 200000003 cycles: 492387078 heartbeat IPC: 0.315475 cumulative IPC: 0.313613 (Simulation time: 0 hr 17 min 57 sec) 
Heartbeat CPU 0 instructions: 210000000 cycles: 524108918 heartbeat IPC: 0.31524 cumulative IPC: 0.313715 (Simulation time: 0 hr 18 min 57 sec) 
Heartbeat CPU 0 instructions: 220000000 cycles: 555818616 heartbeat IPC: 0.315361 cumulative IPC: 0.313811 (Simulation time: 0 hr 20 min 0 sec) 
Heartbeat CPU 0 instructions: 230000000 cycles: 587603603 heartbeat IPC: 0.314614 cumulative IPC: 0.313855 (Simulation time: 0 hr 21 min 3 sec) 
Heartbeat CPU 0 instructions: 240000000 cycles: 619283787 heartbeat IPC: 0.315655 cumulative IPC: 0.31395 (Simulation time: 0 hr 22 min 8 sec) 
*** Reached end of trace for Core: 0 Repeating trace: traces/spec2k17/server_026.champsimtrace.xz
Heartbeat CPU 0 instructions: 250000003 cycles: 651040450 heartbeat IPC: 0.314895 cumulative IPC: 0.313997 (Simulation time: 0 hr 23 min 15 sec) 
Finished CPU 0 instructions: 200000003 cycles: 636949253 cumulative IPC: 0.313997 (Simulation time: 0 hr 23 min 15 sec) 

ChampSim completed all CPUs

Region of Interest Statistics

CPU 0 cumulative IPC: 0.313997 instructions: 200000003 cycles: 636949253
ITLB TOTAL     ACCESS:   34747223  HIT:   32736011  MISS:    2011212  HIT %:    94.2119  MISS %:    5.78812   MPKI: 10.0561
ITLB LOAD TRANSLATION ACCESS:   34747223  HIT:   32736011  MISS:    2011212  HIT %:    94.2119  MISS %:    5.78812   MPKI: 10.0561
ITLB PREFETCH  REQUESTED:          0  ISSUED:          0  USEFUL:          0  USELESS:          0
ITLB USEFUL LOAD PREFETCHES:          0 PREFETCH ISSUED TO LOWER LEVEL:          0  ACCURACY: -nan
ITLB TIMELY PREFETCHES:          0 LATE PREFETCHES: 0 DROPPED PREFETCHES: 0
ITLB PREFETCHES SAME FILL-ORIGIN LEVEL: 0 DIFFERENT FILL-ORIGIN LEVEL: 0
ITLB AVERAGE MISS LATENCY: 9.03181 cycles
ITLB RQ	ACCESS:   40929513	FORWARD:          0	MERGED:    5700865	TO_CACHE:   35228648

DTLB TOTAL     ACCESS:   46261794  HIT:   44425340  MISS:    1836454  HIT %:    96.0303  MISS %:     3.9697   MPKI: 9.18227
DTLB LOAD TRANSLATION ACCESS:   46261794  HIT:   44425340  MISS:    1836454  HIT %:    96.0303  MISS %:     3.9697   MPKI: 9.18227
DTLB PREFETCH  REQUESTED:          0  ISSUED:          0  USEFUL:          0  USELESS:          0
DTLB USEFUL LOAD PREFETCHES:          0 PREFETCH ISSUED TO LOWER LEVEL:          0  ACCURACY: -nan
DTLB TIMELY PREFETCHES:          0 LATE PREFETCHES: 0 DROPPED PREFETCHES: 0
DTLB PREFETCHES SAME FILL-ORIGIN LEVEL: 0 DIFFERENT FILL-ORIGIN LEVEL: 0
DTLB AVERAGE MISS LATENCY: 9.06778 cycles
DTLB RQ	ACCESS:   60869682	FORWARD:          0	MERGED:   14542331	TO_CACHE:   46327351

STLB TOTAL     ACCESS:    6049845  HIT:    6041873  MISS:       7972  HIT %:    99.8682  MISS %:   0.131772   MPKI: 0.03986
STLB LOAD TRANSLATION ACCESS:    3847666  HIT:    3839709  MISS:       7957  HIT %:    99.7932  MISS %:   0.206801   MPKI: 0.039785
STLB TRANSLATION FROM L1D PREFETCHER ACCESS:    2202179  HIT:    2202164  MISS:         15  HIT %:    99.9993  MISS %: 0.000681144   MPKI: 7.5e-05
STLB PREFETCH  REQUESTED:          0  ISSUED:          0  USEFUL:         11  USELESS:          4
STLB USEFUL LOAD PREFETCHES:         11 PREFETCH ISSUED TO LOWER LEVEL:          0  ACCURACY: inf
STLB TIMELY PREFETCHES:         11 LATE PREFETCHES: 0 DROPPED PREFETCHES: 745
STLB PREFETCHES SAME FILL-ORIGIN LEVEL: 0 DIFFERENT FILL-ORIGIN LEVEL: 0
STLB AVERAGE MISS LATENCY: 46.6835 cycles
STLB RQ	ACCESS:    6625759	FORWARD:          0	MERGED:     575165	TO_CACHE:    6050594

STLB Hit, L1D data hit: 0
STLB Hit, L2C data hit: 0
STLB Hit, LLC data hit: 0
STLB Hit, LLC data miss: 0
STLB STLB hints to L2: 0
L1D TOTAL     ACCESS:   61564474  HIT:   57471010  MISS:    4093464  HIT %:    93.3509  MISS %:    6.64907   MPKI: 20.4673
L1D LOAD      ACCESS:   34155447  HIT:   31396782  MISS:    2758665  HIT %:    91.9232  MISS %:    8.07679   MPKI: 13.7933
L1D RFO       ACCESS:   24839617  HIT:   23712870  MISS:    1126747  HIT %:    95.4639  MISS %:    4.53609   MPKI: 5.63373
L1D PREFETCH  ACCESS:    2569410  HIT:    2361358  MISS:     208052  HIT %:    91.9027  MISS %:    8.09727   MPKI: 1.04026
AGUS PREFETCH L1 MISS: 0
L1D PREFETCH  REQUESTED:    5660253  ISSUED:    5660246  USEFUL:     202918  USELESS:       5131
L1D USEFUL LOAD PREFETCHES:     202918 PREFETCH ISSUED TO LOWER LEVEL:     328220  ACCURACY: 61.8238
L1D TIMELY PREFETCHES:     202918 LATE PREFETCHES: 119181 DROPPED PREFETCHES: 801
L1D PREFETCHES SAME FILL-ORIGIN LEVEL: 328220 DIFFERENT FILL-ORIGIN LEVEL: 0
L1D AVERAGE MISS LATENCY: 1.23514e+07 cycles
L1D RQ	ACCESS:   47415900	FORWARD:          0	MERGED:   12846029	TO_CACHE:   34273851
L1D WQ	ACCESS:   26764780	FORWARD:     298711	MERGED:     168949	TO_CACHE:   26595831
L1D PQ	ACCESS:    2882153	FORWARD:          0	MERGED:     101369	TO_CACHE:    2778093

L1D UNIQUE REGIONS ACCESSED: 0
L1D REGIONS CONFLICTS: 0
L1D Cross Page Prefetch Requests: 2124507
L1D Same Page Prefetch Requests: 765506
L1D ROI Sum of L1D PQ occupancy: 38585105
L1D PREFETCHES PUSHED FROM L2C: 0
L1I TOTAL     ACCESS:   39432535  HIT:   28904795  MISS:   10527740  HIT %:    73.3019  MISS %:    26.6981   MPKI: 52.6387
L1I LOAD      ACCESS:   39432535  HIT:   28904795  MISS:   10527740  HIT %:    73.3019  MISS %:    26.6981   MPKI: 52.6387
L1I PREFETCH  REQUESTED:          0  ISSUED:          0  USEFUL:          0  USELESS:          0
L1I USEFUL LOAD PREFETCHES:          0 PREFETCH ISSUED TO LOWER LEVEL:          0  ACCURACY: -nan
L1I TIMELY PREFETCHES:          0 LATE PREFETCHES: 0 DROPPED PREFETCHES: 0
L1I PREFETCHES SAME FILL-ORIGIN LEVEL: 0 DIFFERENT FILL-ORIGIN LEVEL: 0
L1I AVERAGE MISS LATENCY: 16.4644 cycles
L1I RQ	ACCESS:   57882970	FORWARD:          0	MERGED:   16953457	TO_CACHE:   40929513

BTB TOTAL     ACCESS:   29988876  HIT:   17348499  MISS:   12640377  HIT %:    57.8498  MISS %:    42.1502   MPKI: 63.2019
BTB BRANCH_DIRECT_JUMP	ACCESS:    2009046  HIT:    1127352  MISS:     881694
BTB BRANCH_INDIRECT	ACCESS:   11800645  HIT:    6994352  MISS:    4806293
BTB BRANCH_CONDITIONAL	ACCESS:    7683211  HIT:    6358422  MISS:    1324789
BTB BRANCH_DIRECT_CALL	ACCESS:    3580653  HIT:    1498237  MISS:    2082416
BTB BRANCH_INDIRECT_CALL	ACCESS:     667350  HIT:     263513  MISS:     403837
BTB BRANCH_RETURN	ACCESS:    4247971  HIT:    1106623  MISS:    3141348
BTB BRANCH_OTHER ACCESS:          0  HIT:          0  MISS:          0

L2C TOTAL     ACCESS:   16599188  HIT:   15148568  MISS:    1450620  HIT %:    91.2609  MISS %:     8.7391   MPKI: 7.2531
L2C LOAD      ACCESS:   13167221  HIT:   12008903  MISS:    1158318  HIT %:     91.203  MISS %:    8.79698   MPKI: 5.79159
L2C DATA LOAD MPKI: 1.6272
L2C INSTRUCTION LOAD MPKI: 4.16438
L2C RFO       ACCESS:    1125756  HIT:     930291  MISS:     195465  HIT %:     82.637  MISS %:     17.363   MPKI: 0.977325
L2C PREFETCH  ACCESS:     328219  HIT:     292362  MISS:      35857  HIT %:    89.0753  MISS %:    10.9247   MPKI: 0.179285
AGUS PREFETCH L1 MISS: 0
L2C DATA PREFETCH MPKI: 0.179285
L2C INSTRUCTION PREFETCH MPKI: 0
L2C WRITEBACK ACCESS:    1968552  HIT:    1913676  MISS:      54876  HIT %:    97.2124  MISS %:    2.78763   MPKI: 0.27438
L2C LOAD TRANSLATION ACCESS:       8393  HIT:       2799  MISS:       5594  HIT %:    33.3492  MISS %:    66.6508   MPKI: 0.02797
L2C TRANSLATION FROM L1D PREFETCHER ACCESS:       1047  HIT:        537  MISS:        510  HIT %:    51.2894  MISS %:    48.7106   MPKI: 0.00255
L2C PREFETCH  REQUESTED:          0  ISSUED:          0  USEFUL:       5364  USELESS:      30972
L2C USEFUL LOAD PREFETCHES:       5364 PREFETCH ISSUED TO LOWER LEVEL:      35857  ACCURACY: 14.9594
L2C TIMELY PREFETCHES:       5364 LATE PREFETCHES: 0 DROPPED PREFETCHES: 0
L2C PREFETCHES SAME FILL-ORIGIN LEVEL: 0 DIFFERENT FILL-ORIGIN LEVEL: 0
L2C AVERAGE MISS LATENCY: 34.7366 cycles
L2C RQ	ACCESS:   14302424	FORWARD:          0	MERGED:          0	TO_CACHE:   14302417
L2C WQ	ACCESS:    1968552	FORWARD:          8	MERGED:          0	TO_CACHE:    1968552
L2C PQ	ACCESS:     328220	FORWARD:          0	MERGED:          0	TO_CACHE:     328219

L2C Instructions Evicting Data 307762
L2C Translations Evicting Data 4373
L2C Data Evicting Data 276875
L2C Instructions Evicting Instructions 523536
L2C Translations Evicting Instructions 1462
L2C Data Evicting Instructions 275728
L2C Instructions Evicting Translations 1579
L2C Translations Evicting Translations 269
L2C Data Evicting Translations 4160
L2C Dense regions hint from L2: 0
PSCL5 TOTAL     ACCESS:       8715  HIT:       8715  MISS:          0  HIT %:        100  MISS %:          0   MPKI: 0
PSCL5 LOAD TRANSLATION ACCESS:       7957  HIT:       7957  MISS:          0  HIT %:        100  MISS %:          0   MPKI: 0
PSCL5 TRANSLATION FROM L1D PREFETCHER ACCESS:        758  HIT:        758  MISS:          0  HIT %:        100  MISS %:          0   MPKI: 0
PSCL5 PREFETCH  REQUESTED:          0  ISSUED:          0  USEFUL:          0  USELESS:          0
PSCL5 USEFUL LOAD PREFETCHES:          0 PREFETCH ISSUED TO LOWER LEVEL:          0  ACCURACY: -nan
PSCL5 TIMELY PREFETCHES:          0 LATE PREFETCHES: 0 DROPPED PREFETCHES: 0
PSCL5 PREFETCHES SAME FILL-ORIGIN LEVEL: 0 DIFFERENT FILL-ORIGIN LEVEL: 0

PSCL4 TOTAL     ACCESS:       8362  HIT:       8342  MISS:         20  HIT %:    99.7608  MISS %:   0.239177   MPKI: 0.0001
PSCL4 LOAD TRANSLATION ACCESS:       7701  HIT:       7681  MISS:         20  HIT %:    99.7403  MISS %:   0.259707   MPKI: 0.0001
PSCL4 TRANSLATION FROM L1D PREFETCHER ACCESS:        661  HIT:        661  MISS:          0  HIT %:        100  MISS %:          0   MPKI: 0
PSCL4 PREFETCH  REQUESTED:          0  ISSUED:          0  USEFUL:          0  USELESS:          0
PSCL4 USEFUL LOAD PREFETCHES:          0 PREFETCH ISSUED TO LOWER LEVEL:          0  ACCURACY: -nan
PSCL4 TIMELY PREFETCHES:          0 LATE PREFETCHES: 0 DROPPED PREFETCHES: 0
PSCL4 PREFETCHES SAME FILL-ORIGIN LEVEL: 0 DIFFERENT FILL-ORIGIN LEVEL: 0

PSCL3 TOTAL     ACCESS:       8586  HIT:       8566  MISS:         20  HIT %:    99.7671  MISS %:   0.232937   MPKI: 0.0001
PSCL3 LOAD TRANSLATION ACCESS:       7836  HIT:       7816  MISS:         20  HIT %:    99.7448  MISS %:   0.255232   MPKI: 0.0001
PSCL3 TRANSLATION FROM L1D PREFETCHER ACCESS:        750  HIT:        750  MISS:          0  HIT %:        100  MISS %:          0   MPKI: 0
PSCL3 PREFETCH  REQUESTED:          0  ISSUED:          0  USEFUL:          0  USELESS:          0
PSCL3 USEFUL LOAD PREFETCHES:          0 PREFETCH ISSUED TO LOWER LEVEL:          0  ACCURACY: -nan
PSCL3 TIMELY PREFETCHES:          0 LATE PREFETCHES: 0 DROPPED PREFETCHES: 0
PSCL3 PREFETCHES SAME FILL-ORIGIN LEVEL: 0 DIFFERENT FILL-ORIGIN LEVEL: 0

PSCL2 TOTAL     ACCESS:       8322  HIT:       7925  MISS:        397  HIT %:    95.2295  MISS %:    4.77049   MPKI: 0.001985
PSCL2 LOAD TRANSLATION ACCESS:       7957  HIT:       7560  MISS:        397  HIT %:    95.0107  MISS %:    4.98932   MPKI: 0.001985
PSCL2 TRANSLATION FROM L1D PREFETCHER ACCESS:        365  HIT:        365  MISS:          0  HIT %:        100  MISS %:          0   MPKI: 0
PSCL2 PREFETCH  REQUESTED:          0  ISSUED:          0  USEFUL:          0  USELESS:          0
PSCL2 USEFUL LOAD PREFETCHES:          0 PREFETCH ISSUED TO LOWER LEVEL:          0  ACCURACY: -nan
PSCL2 TIMELY PREFETCHES:          0 LATE PREFETCHES: 0 DROPPED PREFETCHES: 0
PSCL2 PREFETCHES SAME FILL-ORIGIN LEVEL: 0 DIFFERENT FILL-ORIGIN LEVEL: 0

LLC TOTAL     ACCESS:    1650956  HIT:    1597311  MISS:      53645  HIT %:    96.7507  MISS %:    3.24933   MPKI: 0.268225
LLC LOAD      ACCESS:    1158318  HIT:    1134424  MISS:      23894  HIT %:    97.9372  MISS %:    2.06282   MPKI: 0.11947
LLC RFO       ACCESS:     195465  HIT:     166608  MISS:      28857  HIT %:    85.2367  MISS %:    14.7633   MPKI: 0.144285
LLC PREFETCH  ACCESS:      35857  HIT:      35700  MISS:        157  HIT %:    99.5621  MISS %:    0.43785   MPKI: 0.000785
AGUS PREFETCH L1 MISS: 0
LLC WRITEBACK ACCESS:     255212  HIT:     254798  MISS:        414  HIT %:    99.8378  MISS %:   0.162218   MPKI: 0.00207
LLC LOAD TRANSLATION ACCESS:       5594  HIT:       5401  MISS:        193  HIT %:    96.5499  MISS %:    3.45013   MPKI: 0.000965
LLC TRANSLATION FROM L1D PREFETCHER ACCESS:        510  HIT:        380  MISS:        130  HIT %:    74.5098  MISS %:    25.4902   MPKI: 0.00065
LLC PREFETCH  REQUESTED:          0  ISSUED:          0  USEFUL:         49  USELESS:        151
LLC USEFUL LOAD PREFETCHES:         49 PREFETCH ISSUED TO LOWER LEVEL:        157  ACCURACY: 31.2102
LLC TIMELY PREFETCHES:         49 LATE PREFETCHES: 0 DROPPED PREFETCHES: 0
LLC PREFETCHES SAME FILL-ORIGIN LEVEL: 0 DIFFERENT FILL-ORIGIN LEVEL: 0
LLC AVERAGE MISS LATENCY: 158.561 cycles
LLC RQ	ACCESS:    1359887	FORWARD:          0	MERGED:          0	TO_CACHE:    1359887
LLC WQ	ACCESS:     255212	FORWARD:          0	MERGED:          0	TO_CACHE:     255212
LLC PQ	ACCESS:      35857	FORWARD:          0	MERGED:          0	TO_CACHE:      35857

LLC Dense regions hint to LLC: 0

RAW hits: 1414722
Loads Generated: 48830622
Loads sent to L1D: 47415900
Stores Generated: 26764751
Stores sent to L1D: 26764780
Major fault: 0 Minor fault: 2264
Allocated PAGES: 2264
Completed 
Accuracy : 92.6489
Number of unique groups: 2162639

DRAM Statistics
 CHANNEL 0
 RQ ROW_BUFFER_HIT:      18954  ROW_BUFFER_MISS:      34262
 DBUS_CONGESTED:         48
 WQ ROW_BUFFER_HIT:       3323  ROW_BUFFER_MISS:      25724  FULL:          0

 AVG_CONGESTED_CYCLE: 4
 All warmup complete: 2
Channel 0 Bank busy for read cycles: 0
Channel 0 Bank busy for write cycles: 0
Channel 0
Rank 0
0banks busy for read cycles: 632611644
0banks busy for write cycles: 7068
1banks busy for read cycles: 1560815
1banks busy for write cycles: 864047
2banks busy for read cycles: 331732
2banks busy for write cycles: 188209
3banks busy for read cycles: 196601
3banks busy for write cycles: 101142
4banks busy for read cycles: 151522
4banks busy for write cycles: 79161
5banks busy for read cycles: 113822
5banks busy for write cycles: 71082
6banks busy for read cycles: 123580
6banks busy for write cycles: 66016
7banks busy for read cycles: 80729
7banks busy for write cycles: 76696
8banks busy for read cycles: 102013
8banks busy for write cycles: 223375

CPU 0 Branch Prediction Accuracy: 99.8683% MPKI: 0.231785 Average ROB Occupancy at Mispredict: 31.9396
Branch types
NOT_BRANCH: 164806500 82.4032%
BRANCH_DIRECT_JUMP: 2009046 1.00452%
BRANCH_INDIRECT: 11800645 5.90032%
BRANCH_CONDITIONAL: 12887718 6.44386%
BRANCH_DIRECT_CALL: 3580653 1.79033%
BRANCH_INDIRECT_CALL: 667350 0.333675%
BRANCH_RETURN: 4247971 2.12399%
BRANCH_OTHER: 0 0%

DRAM PAGES: 1048576
Allocated PAGES: 2264
