
*** ChampSim Multicore Out-of-Order Simulator ***

Warmup Instructions: 50000000
Simulation Instructions: 200000000
Number of CPUs: 1
LLC sets: 2048
LLC ways: 16
Off-chip DRAM Size: 4096 MB Channels: 1 Width: 64-bit Data Rate: 6400 MT/s
CPU 0 runs traces/spec2k17/srv_13.champsimtrace.xz
.xz
BTB has LRU replacement policy
ITLB has LRU replacement policy
DTLB has LRU replacement policy
STLB has LRU replacement policy
L1I has LRU replacement policy
L1D has LRU replacement policy
Initialize SRRIP state for L2C
Initialize DRRIP state for LLC
Heartbeat CPU 0 instructions: 10000002 cycles: 2807144 heartbeat IPC: 3.56234 cumulative IPC: 3.56234 (Simulation time: 0 hr 0 min 46 sec) 
Heartbeat CPU 0 instructions: 20000000 cycles: 5611204 heartbeat IPC: 3.56626 cumulative IPC: 3.5643 (Simulation time: 0 hr 1 min 35 sec) 
Heartbeat CPU 0 instructions: 30000003 cycles: 8417634 heartbeat IPC: 3.56325 cumulative IPC: 3.56395 (Simulation time: 0 hr 2 min 22 sec) 
*** Reached end of trace for Core: 0 Repeating trace: traces/spec2k17/srv_13.champsimtrace.xz
Heartbeat CPU 0 instructions: 40000001 cycles: 11215951 heartbeat IPC: 3.57358 cumulative IPC: 3.56635 (Simulation time: 0 hr 3 min 4 sec) 
Heartbeat CPU 0 instructions: 50000003 cycles: 14021004 heartbeat IPC: 3.565 cumulative IPC: 3.56608 (Simulation time: 0 hr 3 min 44 sec) 

Warmup complete CPU 0 instructions: 50000003 cycles: 14021004 (Simulation time: 0 hr 3 min 44 sec) 

Heartbeat CPU 0 instructions: 60000000 cycles: 44203997 heartbeat IPC: 0.331312 cumulative IPC: 0.331312 (Simulation time: 0 hr 4 min 41 sec) 
*** Reached end of trace for Core: 0 Repeating trace: traces/spec2k17/srv_13.champsimtrace.xz
Heartbeat CPU 0 instructions: 70000001 cycles: 73175100 heartbeat IPC: 0.345172 cumulative IPC: 0.3381 (Simulation time: 0 hr 5 min 40 sec) 
Heartbeat CPU 0 instructions: 80000003 cycles: 102984170 heartbeat IPC: 0.335468 cumulative IPC: 0.337218 (Simulation time: 0 hr 6 min 39 sec) 
Heartbeat CPU 0 instructions: 90000001 cycles: 133237277 heartbeat IPC: 0.330545 cumulative IPC: 0.335525 (Simulation time: 0 hr 7 min 41 sec) 
*** Reached end of trace for Core: 0 Repeating trace: traces/spec2k17/srv_13.champsimtrace.xz
Heartbeat CPU 0 instructions: 100000000 cycles: 162456493 heartbeat IPC: 0.34224 cumulative IPC: 0.336847 (Simulation time: 0 hr 8 min 43 sec) 
Heartbeat CPU 0 instructions: 110000000 cycles: 191942941 heartbeat IPC: 0.339139 cumulative IPC: 0.337227 (Simulation time: 0 hr 9 min 46 sec) 
Heartbeat CPU 0 instructions: 120000002 cycles: 222240274 heartbeat IPC: 0.330062 cumulative IPC: 0.336184 (Simulation time: 0 hr 10 min 48 sec) 
*** Reached end of trace for Core: 0 Repeating trace: traces/spec2k17/srv_13.champsimtrace.xz
Heartbeat CPU 0 instructions: 130000001 cycles: 251332611 heartbeat IPC: 0.343733 cumulative IPC: 0.33711 (Simulation time: 0 hr 11 min 56 sec) 
Heartbeat CPU 0 instructions: 140000002 cycles: 280987974 heartbeat IPC: 0.337207 cumulative IPC: 0.33712 (Simulation time: 0 hr 13 min 7 sec) 
Heartbeat CPU 0 instructions: 150000002 cycles: 311083019 heartbeat IPC: 0.332281 cumulative IPC: 0.33663 (Simulation time: 0 hr 14 min 22 sec) 
*** Reached end of trace for Core: 0 Repeating trace: traces/spec2k17/srv_13.champsimtrace.xz
Heartbeat CPU 0 instructions: 160000002 cycles: 340133875 heartbeat IPC: 0.344224 cumulative IPC: 0.337307 (Simulation time: 0 hr 15 min 45 sec) 
Heartbeat CPU 0 instructions: 170000000 cycles: 369854586 heartbeat IPC: 0.336466 cumulative IPC: 0.337236 (Simulation time: 0 hr 17 min 8 sec) 
Heartbeat CPU 0 instructions: 180000003 cycles: 399871518 heartbeat IPC: 0.333145 cumulative IPC: 0.336918 (Simulation time: 0 hr 18 min 36 sec) 
*** Reached end of trace for Core: 0 Repeating trace: traces/spec2k17/srv_13.champsimtrace.xz
Heartbeat CPU 0 instructions: 190000000 cycles: 429038440 heartbeat IPC: 0.342854 cumulative IPC: 0.337335 (Simulation time: 0 hr 20 min 11 sec) 
Heartbeat CPU 0 instructions: 200000001 cycles: 458642256 heartbeat IPC: 0.337794 cumulative IPC: 0.337366 (Simulation time: 0 hr 21 min 53 sec) 
Heartbeat CPU 0 instructions: 210000000 cycles: 488381848 heartbeat IPC: 0.336252 cumulative IPC: 0.337296 (Simulation time: 0 hr 23 min 38 sec) 
*** Reached end of trace for Core: 0 Repeating trace: traces/spec2k17/srv_13.champsimtrace.xz
Heartbeat CPU 0 instructions: 220000000 cycles: 517783752 heartbeat IPC: 0.340114 cumulative IPC: 0.33746 (Simulation time: 0 hr 25 min 20 sec) 
Heartbeat CPU 0 instructions: 230000001 cycles: 547227586 heartbeat IPC: 0.33963 cumulative IPC: 0.33758 (Simulation time: 0 hr 26 min 59 sec) 
Heartbeat CPU 0 instructions: 240000000 cycles: 576949171 heartbeat IPC: 0.336456 cumulative IPC: 0.337521 (Simulation time: 0 hr 29 min 0 sec) 
*** Reached end of trace for Core: 0 Repeating trace: traces/spec2k17/srv_13.champsimtrace.xz
Heartbeat CPU 0 instructions: 250000000 cycles: 606636248 heartbeat IPC: 0.336847 cumulative IPC: 0.337487 (Simulation time: 0 hr 31 min 15 sec) 
Finished CPU 0 instructions: 200000003 cycles: 592615246 cumulative IPC: 0.337487 (Simulation time: 0 hr 31 min 15 sec) 

ChampSim completed all CPUs

Region of Interest Statistics

CPU 0 cumulative IPC: 0.337487 instructions: 200000003 cycles: 592615246
ITLB TOTAL     ACCESS:   34412539  HIT:   32574414  MISS:    1838125  HIT %:    94.6586  MISS %:    5.34144   MPKI: 9.19062
ITLB LOAD TRANSLATION ACCESS:   34412539  HIT:   32574414  MISS:    1838125  HIT %:    94.6586  MISS %:    5.34144   MPKI: 9.19062
ITLB PREFETCH  REQUESTED:          0  ISSUED:          0  USEFUL:          0  USELESS:          0
ITLB USEFUL LOAD PREFETCHES:          0 PREFETCH ISSUED TO LOWER LEVEL:          0  ACCURACY: -nan
ITLB TIMELY PREFETCHES:          0 LATE PREFETCHES: 0 DROPPED PREFETCHES: 0
ITLB PREFETCHES SAME FILL-ORIGIN LEVEL: 0 DIFFERENT FILL-ORIGIN LEVEL: 0
ITLB AVERAGE MISS LATENCY: 9.04139 cycles
ITLB RQ	ACCESS:   40213815	FORWARD:          0	MERGED:    5358230	TO_CACHE:   34855585

DTLB TOTAL     ACCESS:   45342644  HIT:   43549047  MISS:    1793597  HIT %:    96.0443  MISS %:    3.95565   MPKI: 8.96798
DTLB LOAD TRANSLATION ACCESS:   45342644  HIT:   43549047  MISS:    1793597  HIT %:    96.0443  MISS %:    3.95565   MPKI: 8.96798
DTLB PREFETCH  REQUESTED:          0  ISSUED:          0  USEFUL:          0  USELESS:          0
DTLB USEFUL LOAD PREFETCHES:          0 PREFETCH ISSUED TO LOWER LEVEL:          0  ACCURACY: -nan
DTLB TIMELY PREFETCHES:          0 LATE PREFETCHES: 0 DROPPED PREFETCHES: 0
DTLB PREFETCHES SAME FILL-ORIGIN LEVEL: 0 DIFFERENT FILL-ORIGIN LEVEL: 0
DTLB AVERAGE MISS LATENCY: 9.11565 cycles
DTLB RQ	ACCESS:   59721650	FORWARD:          0	MERGED:   14314234	TO_CACHE:   45407416

STLB TOTAL     ACCESS:    5268656  HIT:    5259257  MISS:       9399  HIT %:    99.8216  MISS %:   0.178395   MPKI: 0.046995
STLB LOAD TRANSLATION ACCESS:    3631722  HIT:    3622350  MISS:       9372  HIT %:    99.7419  MISS %:   0.258059   MPKI: 0.04686
STLB TRANSLATION FROM L1D PREFETCHER ACCESS:    1636934  HIT:    1636907  MISS:         27  HIT %:    99.9984  MISS %: 0.00164943   MPKI: 0.000135
STLB PREFETCH  REQUESTED:          0  ISSUED:          0  USEFUL:         16  USELESS:         10
STLB USEFUL LOAD PREFETCHES:         16 PREFETCH ISSUED TO LOWER LEVEL:          0  ACCURACY: inf
STLB TIMELY PREFETCHES:         16 LATE PREFETCHES: 6 DROPPED PREFETCHES: 716
STLB PREFETCHES SAME FILL-ORIGIN LEVEL: 0 DIFFERENT FILL-ORIGIN LEVEL: 0
STLB AVERAGE MISS LATENCY: 43.4648 cycles
STLB RQ	ACCESS:    5738117	FORWARD:          0	MERGED:     468736	TO_CACHE:    5269381

STLB Hit, L1D data hit: 0
STLB Hit, L2C data hit: 0
STLB Hit, LLC data hit: 0
STLB Hit, LLC data miss: 0
STLB STLB hints to L2: 0
L1D TOTAL     ACCESS:   59804442  HIT:   55981613  MISS:    3822829  HIT %:    93.6078  MISS %:    6.39222   MPKI: 19.1141
L1D LOAD      ACCESS:   33453193  HIT:   30882755  MISS:    2570438  HIT %:    92.3163  MISS %:    7.68369   MPKI: 12.8522
L1D RFO       ACCESS:   24481302  HIT:   23417716  MISS:    1063586  HIT %:    95.6555  MISS %:    4.34448   MPKI: 5.31793
L1D PREFETCH  ACCESS:    1869947  HIT:    1681142  MISS:     188805  HIT %:    89.9032  MISS %:    10.0968   MPKI: 0.944025
AGUS PREFETCH L1 MISS: 0
L1D PREFETCH  REQUESTED:    4353596  ISSUED:    4353596  USEFUL:     179786  USELESS:       9017
L1D USEFUL LOAD PREFETCHES:     179786 PREFETCH ISSUED TO LOWER LEVEL:     353285  ACCURACY: 50.8898
L1D TIMELY PREFETCHES:     179786 LATE PREFETCHES: 164174 DROPPED PREFETCHES: 782
L1D PREFETCHES SAME FILL-ORIGIN LEVEL: 353285 DIFFERENT FILL-ORIGIN LEVEL: 0
L1D AVERAGE MISS LATENCY: 1.49499e+07 cycles
L1D RQ	ACCESS:   46956009	FORWARD:          0	MERGED:   13077632	TO_CACHE:   33583329
L1D WQ	ACCESS:   26311887	FORWARD:     298231	MERGED:     173566	TO_CACHE:   26138321
L1D PQ	ACCESS:    2247201	FORWARD:          0	MERGED:     137623	TO_CACHE:    2106395

L1D UNIQUE REGIONS ACCESSED: 0
L1D REGIONS CONFLICTS: 0
L1D Cross Page Prefetch Requests: 1539622
L1D Same Page Prefetch Requests: 715394
L1D ROI Sum of L1D PQ occupancy: 29158827
L1D PREFETCHES PUSHED FROM L2C: 0
L1I TOTAL     ACCESS:   38813760  HIT:   29172921  MISS:    9640839  HIT %:    75.1613  MISS %:    24.8387   MPKI: 48.2042
L1I LOAD      ACCESS:   38813760  HIT:   29172921  MISS:    9640839  HIT %:    75.1613  MISS %:    24.8387   MPKI: 48.2042
L1I PREFETCH  REQUESTED:          0  ISSUED:          0  USEFUL:          0  USELESS:          0
L1I USEFUL LOAD PREFETCHES:          0 PREFETCH ISSUED TO LOWER LEVEL:          0  ACCURACY: -nan
L1I TIMELY PREFETCHES:          0 LATE PREFETCHES: 0 DROPPED PREFETCHES: 0
L1I PREFETCHES SAME FILL-ORIGIN LEVEL: 0 DIFFERENT FILL-ORIGIN LEVEL: 0
L1I AVERAGE MISS LATENCY: 16.4225 cycles
L1I RQ	ACCESS:   57776072	FORWARD:          0	MERGED:   17562257	TO_CACHE:   40213815

BTB TOTAL     ACCESS:   30281760  HIT:   18910009  MISS:   11371751  HIT %:    62.4469  MISS %:    37.5531   MPKI: 56.8588
BTB BRANCH_DIRECT_JUMP	ACCESS:    2184471  HIT:    1385849  MISS:     798622
BTB BRANCH_INDIRECT	ACCESS:   11367631  HIT:    7108083  MISS:    4259548
BTB BRANCH_CONDITIONAL	ACCESS:    8713184  HIT:    7563917  MISS:    1149267
BTB BRANCH_DIRECT_CALL	ACCESS:    3386061  HIT:    1522950  MISS:    1863111
BTB BRANCH_INDIRECT_CALL	ACCESS:     622186  HIT:     244573  MISS:     377613
BTB BRANCH_RETURN	ACCESS:    4008227  HIT:    1084637  MISS:    2923590
BTB BRANCH_OTHER ACCESS:          0  HIT:          0  MISS:          0

L2C TOTAL     ACCESS:   15262370  HIT:   13841594  MISS:    1420776  HIT %:     90.691  MISS %:    9.30901   MPKI: 7.10388
L2C LOAD      ACCESS:   12047061  HIT:   10937477  MISS:    1109584  HIT %:    90.7896  MISS %:    9.21041   MPKI: 5.54792
L2C DATA LOAD MPKI: 1.78729
L2C INSTRUCTION LOAD MPKI: 3.76062
L2C RFO       ACCESS:    1063275  HIT:     854553  MISS:     208722  HIT %:    80.3699  MISS %:    19.6301   MPKI: 1.04361
L2C PREFETCH  ACCESS:     353285  HIT:     308287  MISS:      44998  HIT %:     87.263  MISS %:     12.737   MPKI: 0.22499
AGUS PREFETCH L1 MISS: 0
L2C DATA PREFETCH MPKI: 0.22499
L2C INSTRUCTION PREFETCH MPKI: 0
L2C WRITEBACK ACCESS:    1787404  HIT:    1737240  MISS:      50164  HIT %:    97.1935  MISS %:    2.80653   MPKI: 0.25082
L2C LOAD TRANSLATION ACCESS:      10298  HIT:       3607  MISS:       6691  HIT %:    35.0262  MISS %:    64.9738   MPKI: 0.033455
L2C TRANSLATION FROM L1D PREFETCHER ACCESS:       1047  HIT:        430  MISS:        617  HIT %:    41.0697  MISS %:    58.9303   MPKI: 0.003085
L2C PREFETCH  REQUESTED:          0  ISSUED:          0  USEFUL:       8454  USELESS:      37089
L2C USEFUL LOAD PREFETCHES:       8454 PREFETCH ISSUED TO LOWER LEVEL:      44998  ACCURACY: 18.7875
L2C TIMELY PREFETCHES:       8454 LATE PREFETCHES: 0 DROPPED PREFETCHES: 0
L2C PREFETCHES SAME FILL-ORIGIN LEVEL: 0 DIFFERENT FILL-ORIGIN LEVEL: 0
L2C AVERAGE MISS LATENCY: 32.4923 cycles
L2C RQ	ACCESS:   13121730	FORWARD:          0	MERGED:          0	TO_CACHE:   13121683
L2C WQ	ACCESS:    1787404	FORWARD:         47	MERGED:          0	TO_CACHE:    1787404
L2C PQ	ACCESS:     353285	FORWARD:          0	MERGED:          0	TO_CACHE:     353285

L2C Instructions Evicting Data 304803
L2C Translations Evicting Data 5229
L2C Data Evicting Data 329902
L2C Instructions Evicting Instructions 445462
L2C Translations Evicting Instructions 1934
L2C Data Evicting Instructions 276190
L2C Instructions Evicting Translations 1860
L2C Translations Evicting Translations 145
L2C Data Evicting Translations 5087
L2C Dense regions hint from L2: 0
PSCL5 TOTAL     ACCESS:      10115  HIT:      10115  MISS:          0  HIT %:        100  MISS %:          0   MPKI: 0
PSCL5 LOAD TRANSLATION ACCESS:       9366  HIT:       9366  MISS:          0  HIT %:        100  MISS %:          0   MPKI: 0
PSCL5 TRANSLATION FROM L1D PREFETCHER ACCESS:        749  HIT:        749  MISS:          0  HIT %:        100  MISS %:          0   MPKI: 0
PSCL5 PREFETCH  REQUESTED:          0  ISSUED:          0  USEFUL:          0  USELESS:          0
PSCL5 USEFUL LOAD PREFETCHES:          0 PREFETCH ISSUED TO LOWER LEVEL:          0  ACCURACY: -nan
PSCL5 TIMELY PREFETCHES:          0 LATE PREFETCHES: 0 DROPPED PREFETCHES: 0
PSCL5 PREFETCHES SAME FILL-ORIGIN LEVEL: 0 DIFFERENT FILL-ORIGIN LEVEL: 0

PSCL4 TOTAL     ACCESS:       9416  HIT:       9385  MISS:         31  HIT %:    99.6708  MISS %:   0.329227   MPKI: 0.000155
PSCL4 LOAD TRANSLATION ACCESS:       8749  HIT:       8718  MISS:         31  HIT %:    99.6457  MISS %:   0.354326   MPKI: 0.000155
PSCL4 TRANSLATION FROM L1D PREFETCHER ACCESS:        667  HIT:        667  MISS:          0  HIT %:        100  MISS %:          0   MPKI: 0
PSCL4 PREFETCH  REQUESTED:          0  ISSUED:          0  USEFUL:          0  USELESS:          0
PSCL4 USEFUL LOAD PREFETCHES:          0 PREFETCH ISSUED TO LOWER LEVEL:          0  ACCURACY: -nan
PSCL4 TIMELY PREFETCHES:          0 LATE PREFETCHES: 0 DROPPED PREFETCHES: 0
PSCL4 PREFETCHES SAME FILL-ORIGIN LEVEL: 0 DIFFERENT FILL-ORIGIN LEVEL: 0

PSCL3 TOTAL     ACCESS:       9990  HIT:       9959  MISS:         31  HIT %:    99.6897  MISS %:    0.31031   MPKI: 0.000155
PSCL3 LOAD TRANSLATION ACCESS:       9276  HIT:       9245  MISS:         31  HIT %:    99.6658  MISS %:   0.334196   MPKI: 0.000155
PSCL3 TRANSLATION FROM L1D PREFETCHER ACCESS:        714  HIT:        714  MISS:          0  HIT %:        100  MISS %:          0   MPKI: 0
PSCL3 PREFETCH  REQUESTED:          0  ISSUED:          0  USEFUL:          0  USELESS:          0
PSCL3 USEFUL LOAD PREFETCHES:          0 PREFETCH ISSUED TO LOWER LEVEL:          0  ACCURACY: -nan
PSCL3 TIMELY PREFETCHES:          0 LATE PREFETCHES: 0 DROPPED PREFETCHES: 0
PSCL3 PREFETCHES SAME FILL-ORIGIN LEVEL: 0 DIFFERENT FILL-ORIGIN LEVEL: 0

PSCL2 TOTAL     ACCESS:       9689  HIT:       8815  MISS:        874  HIT %:    90.9795  MISS %:    9.02054   MPKI: 0.00437
PSCL2 LOAD TRANSLATION ACCESS:       9370  HIT:       8496  MISS:        874  HIT %:    90.6724  MISS %:    9.32764   MPKI: 0.00437
PSCL2 TRANSLATION FROM L1D PREFETCHER ACCESS:        319  HIT:        319  MISS:          0  HIT %:        100  MISS %:          0   MPKI: 0
PSCL2 PREFETCH  REQUESTED:          0  ISSUED:          0  USEFUL:          0  USELESS:          0
PSCL2 USEFUL LOAD PREFETCHES:          0 PREFETCH ISSUED TO LOWER LEVEL:          0  ACCURACY: -nan
PSCL2 TIMELY PREFETCHES:          0 LATE PREFETCHES: 0 DROPPED PREFETCHES: 0
PSCL2 PREFETCHES SAME FILL-ORIGIN LEVEL: 0 DIFFERENT FILL-ORIGIN LEVEL: 0

LLC TOTAL     ACCESS:    1655873  HIT:    1620807  MISS:      35066  HIT %:    97.8823  MISS %:    2.11767   MPKI: 0.17533
LLC LOAD      ACCESS:    1109584  HIT:    1090329  MISS:      19255  HIT %:    98.2647  MISS %:    1.73534   MPKI: 0.096275
LLC RFO       ACCESS:     208722  HIT:     193603  MISS:      15119  HIT %:    92.7564  MISS %:    7.24361   MPKI: 0.075595
LLC PREFETCH  ACCESS:      44998  HIT:      44605  MISS:        393  HIT %:    99.1266  MISS %:   0.873372   MPKI: 0.001965
AGUS PREFETCH L1 MISS: 0
LLC WRITEBACK ACCESS:     285261  HIT:     285187  MISS:         74  HIT %:    99.9741  MISS %:  0.0259412   MPKI: 0.00037
LLC LOAD TRANSLATION ACCESS:       6691  HIT:       6596  MISS:         95  HIT %:    98.5802  MISS %:    1.41982   MPKI: 0.000475
LLC TRANSLATION FROM L1D PREFETCHER ACCESS:        617  HIT:        487  MISS:        130  HIT %:    78.9303  MISS %:    21.0697   MPKI: 0.00065
LLC PREFETCH  REQUESTED:          0  ISSUED:          0  USEFUL:         62  USELESS:        194
LLC USEFUL LOAD PREFETCHES:         62 PREFETCH ISSUED TO LOWER LEVEL:        393  ACCURACY: 15.7761
LLC TIMELY PREFETCHES:         62 LATE PREFETCHES: 0 DROPPED PREFETCHES: 0
LLC PREFETCHES SAME FILL-ORIGIN LEVEL: 0 DIFFERENT FILL-ORIGIN LEVEL: 0
LLC AVERAGE MISS LATENCY: 143.876 cycles
LLC RQ	ACCESS:    1325614	FORWARD:          0	MERGED:          0	TO_CACHE:    1325614
LLC WQ	ACCESS:     285261	FORWARD:          0	MERGED:          0	TO_CACHE:     285261
LLC PQ	ACCESS:      44998	FORWARD:          0	MERGED:          0	TO_CACHE:      44998

LLC Dense regions hint to LLC: 0

RAW hits: 1386356
Loads Generated: 48342365
Loads sent to L1D: 46956009
Stores Generated: 26311868
Stores sent to L1D: 26311887
Major fault: 0 Minor fault: 1910
Allocated PAGES: 1910
Completed 
Accuracy : 89.9823
Number of unique groups: 3012112

DRAM Statistics
 CHANNEL 0
 RQ ROW_BUFFER_HIT:      10975  ROW_BUFFER_MISS:      24005
 DBUS_CONGESTED:         76
 WQ ROW_BUFFER_HIT:       2145  ROW_BUFFER_MISS:      14833  FULL:          0

 AVG_CONGESTED_CYCLE: 5
 All warmup complete: 2
Channel 0 Bank busy for read cycles: 0
Channel 0 Bank busy for write cycles: 0
Channel 0
Rank 0
0banks busy for read cycles: 589258837
0banks busy for write cycles: 5442
1banks busy for read cycles: 1347198
1banks busy for write cycles: 655539
2banks busy for read cycles: 333141
2banks busy for write cycles: 149475
3banks busy for read cycles: 189401
3banks busy for write cycles: 93744
4banks busy for read cycles: 115677
4banks busy for write cycles: 62368
5banks busy for read cycles: 79730
5banks busy for write cycles: 48393
6banks busy for read cycles: 58469
6banks busy for write cycles: 39323
7banks busy for read cycles: 29911
7banks busy for write cycles: 48526
8banks busy for read cycles: 18496
8banks busy for write cycles: 81577

CPU 0 Branch Prediction Accuracy: 99.8429% MPKI: 0.27698 Average ROB Occupancy at Mispredict: 52.7652
Branch types
NOT_BRANCH: 164736751 82.3684%
BRANCH_DIRECT_JUMP: 2184471 1.09224%
BRANCH_INDIRECT: 11367631 5.68382%
BRANCH_CONDITIONAL: 13694607 6.8473%
BRANCH_DIRECT_CALL: 3386061 1.69303%
BRANCH_INDIRECT_CALL: 622186 0.311093%
BRANCH_RETURN: 4008227 2.00411%
BRANCH_OTHER: 0 0%

DRAM PAGES: 1048576
Allocated PAGES: 1910
