
*** ChampSim Multicore Out-of-Order Simulator ***

Warmup Instructions: 50000000
Simulation Instructions: 200000000
Number of CPUs: 1
LLC sets: 2048
LLC ways: 16
Off-chip DRAM Size: 4096 MB Channels: 1 Width: 64-bit Data Rate: 6400 MT/s
CPU 0 runs traces/spec2k17/srv_16.champsimtrace.xz
.xz
BTB has LRU replacement policy
ITLB has LRU replacement policy
DTLB has LRU replacement policy
STLB has LRU replacement policy
L1I has LRU replacement policy
L1D has LRU replacement policy
Initialize SRRIP state for L2C
Initialize DRRIP state for LLC
Heartbeat CPU 0 instructions: 10000002 cycles: 2839084 heartbeat IPC: 3.52226 cumulative IPC: 3.52226 (Simulation time: 0 hr 0 min 40 sec) 
Heartbeat CPU 0 instructions: 20000002 cycles: 5673900 heartbeat IPC: 3.52757 cumulative IPC: 3.52491 (Simulation time: 0 hr 1 min 21 sec) 
Heartbeat CPU 0 instructions: 30000003 cycles: 8504829 heartbeat IPC: 3.53241 cumulative IPC: 3.52741 (Simulation time: 0 hr 1 min 58 sec) 
*** Reached end of trace for Core: 0 Repeating trace: traces/spec2k17/srv_16.champsimtrace.xz
Heartbeat CPU 0 instructions: 40000001 cycles: 11337202 heartbeat IPC: 3.53061 cumulative IPC: 3.52821 (Simulation time: 0 hr 2 min 35 sec) 
Heartbeat CPU 0 instructions: 50000003 cycles: 14171243 heartbeat IPC: 3.52853 cumulative IPC: 3.52827 (Simulation time: 0 hr 3 min 10 sec) 

Warmup complete CPU 0 instructions: 50000003 cycles: 14171243 (Simulation time: 0 hr 3 min 10 sec) 

Heartbeat CPU 0 instructions: 60000001 cycles: 47732613 heartbeat IPC: 0.297962 cumulative IPC: 0.297962 (Simulation time: 0 hr 4 min 5 sec) 
*** Reached end of trace for Core: 0 Repeating trace: traces/spec2k17/srv_16.champsimtrace.xz
Heartbeat CPU 0 instructions: 70000001 cycles: 81379417 heartbeat IPC: 0.297205 cumulative IPC: 0.297583 (Simulation time: 0 hr 5 min 7 sec) 
Heartbeat CPU 0 instructions: 80000000 cycles: 115013141 heartbeat IPC: 0.297321 cumulative IPC: 0.297495 (Simulation time: 0 hr 6 min 5 sec) 
Heartbeat CPU 0 instructions: 90000000 cycles: 148482795 heartbeat IPC: 0.298778 cumulative IPC: 0.297815 (Simulation time: 0 hr 7 min 5 sec) 
*** Reached end of trace for Core: 0 Repeating trace: traces/spec2k17/srv_16.champsimtrace.xz
Heartbeat CPU 0 instructions: 100000003 cycles: 181991954 heartbeat IPC: 0.298426 cumulative IPC: 0.297937 (Simulation time: 0 hr 8 min 5 sec) 
Heartbeat CPU 0 instructions: 110000000 cycles: 215507439 heartbeat IPC: 0.298369 cumulative IPC: 0.298009 (Simulation time: 0 hr 9 min 6 sec) 
Heartbeat CPU 0 instructions: 120000001 cycles: 248877280 heartbeat IPC: 0.299672 cumulative IPC: 0.298245 (Simulation time: 0 hr 10 min 5 sec) 
*** Reached end of trace for Core: 0 Repeating trace: traces/spec2k17/srv_16.champsimtrace.xz
Heartbeat CPU 0 instructions: 130000003 cycles: 282132835 heartbeat IPC: 0.300702 cumulative IPC: 0.29855 (Simulation time: 0 hr 11 min 8 sec) 
Heartbeat CPU 0 instructions: 140000001 cycles: 315347151 heartbeat IPC: 0.301075 cumulative IPC: 0.298829 (Simulation time: 0 hr 12 min 7 sec) 
Heartbeat CPU 0 instructions: 150000000 cycles: 348431823 heartbeat IPC: 0.302255 cumulative IPC: 0.299168 (Simulation time: 0 hr 13 min 5 sec) 
*** Reached end of trace for Core: 0 Repeating trace: traces/spec2k17/srv_16.champsimtrace.xz
Heartbeat CPU 0 instructions: 160000001 cycles: 381487447 heartbeat IPC: 0.30252 cumulative IPC: 0.29947 (Simulation time: 0 hr 14 min 6 sec) 
Heartbeat CPU 0 instructions: 170000002 cycles: 414664343 heartbeat IPC: 0.301415 cumulative IPC: 0.299631 (Simulation time: 0 hr 15 min 10 sec) 
Heartbeat CPU 0 instructions: 180000001 cycles: 447742102 heartbeat IPC: 0.302318 cumulative IPC: 0.299836 (Simulation time: 0 hr 16 min 23 sec) 
*** Reached end of trace for Core: 0 Repeating trace: traces/spec2k17/srv_16.champsimtrace.xz
Heartbeat CPU 0 instructions: 190000003 cycles: 480754869 heartbeat IPC: 0.302913 cumulative IPC: 0.300053 (Simulation time: 0 hr 17 min 25 sec) 
Heartbeat CPU 0 instructions: 200000002 cycles: 513934018 heartbeat IPC: 0.301394 cumulative IPC: 0.300142 (Simulation time: 0 hr 18 min 25 sec) 
Heartbeat CPU 0 instructions: 210000001 cycles: 547051851 heartbeat IPC: 0.301952 cumulative IPC: 0.300255 (Simulation time: 0 hr 19 min 26 sec) 
*** Reached end of trace for Core: 0 Repeating trace: traces/spec2k17/srv_16.champsimtrace.xz
Heartbeat CPU 0 instructions: 220000000 cycles: 580039139 heartbeat IPC: 0.303147 cumulative IPC: 0.300423 (Simulation time: 0 hr 20 min 28 sec) 
Heartbeat CPU 0 instructions: 230000001 cycles: 613219444 heartbeat IPC: 0.301384 cumulative IPC: 0.300477 (Simulation time: 0 hr 21 min 29 sec) 
Heartbeat CPU 0 instructions: 240000000 cycles: 646337926 heartbeat IPC: 0.301946 cumulative IPC: 0.300554 (Simulation time: 0 hr 22 min 30 sec) 
Heartbeat CPU 0 instructions: 250000003 cycles: 679292791 heartbeat IPC: 0.303445 cumulative IPC: 0.300697 (Simulation time: 0 hr 23 min 30 sec) 
Finished CPU 0 instructions: 200000000 cycles: 665121548 cumulative IPC: 0.300697 (Simulation time: 0 hr 23 min 30 sec) 

ChampSim completed all CPUs

Region of Interest Statistics

CPU 0 cumulative IPC: 0.300697 instructions: 200000000 cycles: 665121548
ITLB TOTAL     ACCESS:   35383028  HIT:   32956340  MISS:    2426688  HIT %:    93.1417  MISS %:    6.85834   MPKI: 12.1334
ITLB LOAD TRANSLATION ACCESS:   35383028  HIT:   32956340  MISS:    2426688  HIT %:    93.1417  MISS %:    6.85834   MPKI: 12.1334
ITLB PREFETCH  REQUESTED:          0  ISSUED:          0  USEFUL:          0  USELESS:          0
ITLB USEFUL LOAD PREFETCHES:          0 PREFETCH ISSUED TO LOWER LEVEL:          0  ACCURACY: -nan
ITLB TIMELY PREFETCHES:          0 LATE PREFETCHES: 0 DROPPED PREFETCHES: 0
ITLB PREFETCHES SAME FILL-ORIGIN LEVEL: 0 DIFFERENT FILL-ORIGIN LEVEL: 0
ITLB AVERAGE MISS LATENCY: 9.01323 cycles
ITLB RQ	ACCESS:   41965736	FORWARD:          0	MERGED:    6018377	TO_CACHE:   35947359

DTLB TOTAL     ACCESS:   47480310  HIT:   45507487  MISS:    1972823  HIT %:     95.845  MISS %:    4.15503   MPKI: 9.86411
DTLB LOAD TRANSLATION ACCESS:   47480310  HIT:   45507487  MISS:    1972823  HIT %:     95.845  MISS %:    4.15503   MPKI: 9.86411
DTLB PREFETCH  REQUESTED:          0  ISSUED:          0  USEFUL:          0  USELESS:          0
DTLB USEFUL LOAD PREFETCHES:          0 PREFETCH ISSUED TO LOWER LEVEL:          0  ACCURACY: -nan
DTLB TIMELY PREFETCHES:          0 LATE PREFETCHES: 0 DROPPED PREFETCHES: 0
DTLB PREFETCHES SAME FILL-ORIGIN LEVEL: 0 DIFFERENT FILL-ORIGIN LEVEL: 0
DTLB AVERAGE MISS LATENCY: 8.63473 cycles
DTLB RQ	ACCESS:   62681239	FORWARD:          0	MERGED:   15151939	TO_CACHE:   47529300

STLB TOTAL     ACCESS:   12813233  HIT:   12811932  MISS:       1301  HIT %:    99.9898  MISS %:  0.0101536   MPKI: 0.006505
STLB LOAD TRANSLATION ACCESS:    4399511  HIT:    4398233  MISS:       1278  HIT %:     99.971  MISS %:  0.0290487   MPKI: 0.00639
STLB TRANSLATION FROM L1D PREFETCHER ACCESS:    8413722  HIT:    8413699  MISS:         23  HIT %:    99.9997  MISS %: 0.000273363   MPKI: 0.000115
STLB PREFETCH  REQUESTED:          0  ISSUED:          0  USEFUL:         12  USELESS:         11
STLB USEFUL LOAD PREFETCHES:         12 PREFETCH ISSUED TO LOWER LEVEL:          0  ACCURACY: inf
STLB TIMELY PREFETCHES:         12 LATE PREFETCHES: 0 DROPPED PREFETCHES: 2224
STLB PREFETCHES SAME FILL-ORIGIN LEVEL: 0 DIFFERENT FILL-ORIGIN LEVEL: 0
STLB AVERAGE MISS LATENCY: 28.1676 cycles
STLB RQ	ACCESS:   14837032	FORWARD:          0	MERGED:    2021573	TO_CACHE:   12815459

STLB Hit, L1D data hit: 0
STLB Hit, L2C data hit: 0
STLB Hit, LLC data hit: 0
STLB Hit, LLC data miss: 0
STLB STLB hints to L2: 0
L1D TOTAL     ACCESS:   70828295  HIT:   66413284  MISS:    4415011  HIT %:    93.7666  MISS %:     6.2334   MPKI: 22.0751
L1D LOAD      ACCESS:   34679521  HIT:   32117267  MISS:    2562254  HIT %:    92.6116  MISS %:    7.38838   MPKI: 12.8113
L1D RFO       ACCESS:   26223505  HIT:   25061324  MISS:    1162181  HIT %:    95.5682  MISS %:    4.43183   MPKI: 5.8109
L1D PREFETCH  ACCESS:    9925269  HIT:    9234693  MISS:     690576  HIT %:    93.0422  MISS %:    6.95776   MPKI: 3.45288
AGUS PREFETCH L1 MISS: 0
L1D PREFETCH  REQUESTED:   21243380  ISSUED:   21243380  USEFUL:     682716  USELESS:       7857
L1D USEFUL LOAD PREFETCHES:     682716 PREFETCH ISSUED TO LOWER LEVEL:     944954  ACCURACY: 72.2486
L1D TIMELY PREFETCHES:     682716 LATE PREFETCHES: 251373 DROPPED PREFETCHES: 2815
L1D PREFETCHES SAME FILL-ORIGIN LEVEL: 944954 DIFFERENT FILL-ORIGIN LEVEL: 0
L1D AVERAGE MISS LATENCY: 2.64895e+07 cycles
L1D RQ	ACCESS:   47210399	FORWARD:          0	MERGED:   12072484	TO_CACHE:   34790086
L1D WQ	ACCESS:   28035950	FORWARD:     363732	MERGED:     144797	TO_CACHE:   27891153
L1D PQ	ACCESS:   10805859	FORWARD:          0	MERGED:     352435	TO_CACHE:   10437521

L1D UNIQUE REGIONS ACCESSED: 0
L1D REGIONS CONFLICTS: 0
L1D Cross Page Prefetch Requests: 8381412
L1D Same Page Prefetch Requests: 2449119
L1D ROI Sum of L1D PQ occupancy: 144741013
L1D PREFETCHES PUSHED FROM L2C: 0
L1I TOTAL     ACCESS:   40176641  HIT:   27975030  MISS:   12201611  HIT %:    69.6301  MISS %:    30.3699   MPKI: 61.0081
L1I LOAD      ACCESS:   40176641  HIT:   27975030  MISS:   12201611  HIT %:    69.6301  MISS %:    30.3699   MPKI: 61.0081
L1I PREFETCH  REQUESTED:          0  ISSUED:          0  USEFUL:          0  USELESS:          0
L1I USEFUL LOAD PREFETCHES:          0 PREFETCH ISSUED TO LOWER LEVEL:          0  ACCURACY: -nan
L1I TIMELY PREFETCHES:          0 LATE PREFETCHES: 0 DROPPED PREFETCHES: 0
L1I PREFETCHES SAME FILL-ORIGIN LEVEL: 0 DIFFERENT FILL-ORIGIN LEVEL: 0
L1I AVERAGE MISS LATENCY: 15.4683 cycles
L1I RQ	ACCESS:   58894974	FORWARD:          0	MERGED:   16929238	TO_CACHE:   41965736

BTB TOTAL     ACCESS:   30243090  HIT:   16698409  MISS:   13544681  HIT %:     55.214  MISS %:     44.786   MPKI: 67.7234
BTB BRANCH_DIRECT_JUMP	ACCESS:    1963388  HIT:    1087332  MISS:     876056
BTB BRANCH_INDIRECT	ACCESS:   12759698  HIT:    7591616  MISS:    5168082
BTB BRANCH_CONDITIONAL	ACCESS:    5682628  HIT:    4287581  MISS:    1395047
BTB BRANCH_DIRECT_CALL	ACCESS:    4145072  HIT:    1929113  MISS:    2215959
BTB BRANCH_INDIRECT_CALL	ACCESS:     773633  HIT:     372148  MISS:     401485
BTB BRANCH_RETURN	ACCESS:    4918671  HIT:    1430619  MISS:    3488052
BTB BRANCH_OTHER ACCESS:          0  HIT:          0  MISS:          0

L2C TOTAL     ACCESS:   18904131  HIT:   18110729  MISS:     793402  HIT %:     95.803  MISS %:    4.19698   MPKI: 3.96701
L2C LOAD      ACCESS:   14511925  HIT:   13778895  MISS:     733030  HIT %:    94.9488  MISS %:    5.05123   MPKI: 3.66515
L2C DATA LOAD MPKI: 0.830915
L2C INSTRUCTION LOAD MPKI: 2.83424
L2C RFO       ACCESS:    1159176  HIT:    1146401  MISS:      12775  HIT %:    98.8979  MISS %:    1.10208   MPKI: 0.063875
L2C PREFETCH  ACCESS:     944947  HIT:     907868  MISS:      37079  HIT %:    96.0761  MISS %:    3.92392   MPKI: 0.185395
AGUS PREFETCH L1 MISS: 0
L2C DATA PREFETCH MPKI: 0.185395
L2C INSTRUCTION PREFETCH MPKI: 0
L2C WRITEBACK ACCESS:    2284139  HIT:    2274834  MISS:       9305  HIT %:    99.5926  MISS %:   0.407375   MPKI: 0.046525
L2C LOAD TRANSLATION ACCESS:       1278  HIT:        889  MISS:        389  HIT %:    69.5618  MISS %:    30.4382   MPKI: 0.001945
L2C TRANSLATION FROM L1D PREFETCHER ACCESS:       2666  HIT:       1842  MISS:        824  HIT %:    69.0923  MISS %:    30.9077   MPKI: 0.00412
L2C PREFETCH  REQUESTED:          0  ISSUED:          0  USEFUL:       1100  USELESS:      36777
L2C USEFUL LOAD PREFETCHES:       1100 PREFETCH ISSUED TO LOWER LEVEL:      37079  ACCURACY: 2.96664
L2C TIMELY PREFETCHES:       1100 LATE PREFETCHES: 0 DROPPED PREFETCHES: 0
L2C PREFETCHES SAME FILL-ORIGIN LEVEL: 0 DIFFERENT FILL-ORIGIN LEVEL: 0
L2C AVERAGE MISS LATENCY: 29.8808 cycles
L2C RQ	ACCESS:   15675609	FORWARD:          0	MERGED:          0	TO_CACHE:   15675043
L2C WQ	ACCESS:    2284139	FORWARD:        573	MERGED:          0	TO_CACHE:    2284139
L2C PQ	ACCESS:     944954	FORWARD:          0	MERGED:          0	TO_CACHE:     944947

L2C Instructions Evicting Data 112171
L2C Translations Evicting Data 981
L2C Data Evicting Data 111124
L2C Instructions Evicting Instructions 454366
L2C Translations Evicting Instructions 231
L2C Data Evicting Instructions 104012
L2C Instructions Evicting Translations 310
L2C Translations Evicting Translations 0
L2C Data Evicting Translations 901
L2C Dense regions hint from L2: 0
PSCL5 TOTAL     ACCESS:       3523  HIT:       3523  MISS:          0  HIT %:        100  MISS %:          0   MPKI: 0
PSCL5 LOAD TRANSLATION ACCESS:       1278  HIT:       1278  MISS:          0  HIT %:        100  MISS %:          0   MPKI: 0
PSCL5 TRANSLATION FROM L1D PREFETCHER ACCESS:       2245  HIT:       2245  MISS:          0  HIT %:        100  MISS %:          0   MPKI: 0
PSCL5 PREFETCH  REQUESTED:          0  ISSUED:          0  USEFUL:          0  USELESS:          0
PSCL5 USEFUL LOAD PREFETCHES:          0 PREFETCH ISSUED TO LOWER LEVEL:          0  ACCURACY: -nan
PSCL5 TIMELY PREFETCHES:          0 LATE PREFETCHES: 0 DROPPED PREFETCHES: 0
PSCL5 PREFETCHES SAME FILL-ORIGIN LEVEL: 0 DIFFERENT FILL-ORIGIN LEVEL: 0

PSCL4 TOTAL     ACCESS:       3505  HIT:       3505  MISS:          0  HIT %:        100  MISS %:          0   MPKI: 0
PSCL4 LOAD TRANSLATION ACCESS:       1278  HIT:       1278  MISS:          0  HIT %:        100  MISS %:          0   MPKI: 0
PSCL4 TRANSLATION FROM L1D PREFETCHER ACCESS:       2227  HIT:       2227  MISS:          0  HIT %:        100  MISS %:          0   MPKI: 0
PSCL4 PREFETCH  REQUESTED:          0  ISSUED:          0  USEFUL:          0  USELESS:          0
PSCL4 USEFUL LOAD PREFETCHES:          0 PREFETCH ISSUED TO LOWER LEVEL:          0  ACCURACY: -nan
PSCL4 TIMELY PREFETCHES:          0 LATE PREFETCHES: 0 DROPPED PREFETCHES: 0
PSCL4 PREFETCHES SAME FILL-ORIGIN LEVEL: 0 DIFFERENT FILL-ORIGIN LEVEL: 0

PSCL3 TOTAL     ACCESS:       2934  HIT:       2934  MISS:          0  HIT %:        100  MISS %:          0   MPKI: 0
PSCL3 LOAD TRANSLATION ACCESS:       1278  HIT:       1278  MISS:          0  HIT %:        100  MISS %:          0   MPKI: 0
PSCL3 TRANSLATION FROM L1D PREFETCHER ACCESS:       1656  HIT:       1656  MISS:          0  HIT %:        100  MISS %:          0   MPKI: 0
PSCL3 PREFETCH  REQUESTED:          0  ISSUED:          0  USEFUL:          0  USELESS:          0
PSCL3 USEFUL LOAD PREFETCHES:          0 PREFETCH ISSUED TO LOWER LEVEL:          0  ACCURACY: -nan
PSCL3 TIMELY PREFETCHES:          0 LATE PREFETCHES: 0 DROPPED PREFETCHES: 0
PSCL3 PREFETCHES SAME FILL-ORIGIN LEVEL: 0 DIFFERENT FILL-ORIGIN LEVEL: 0

PSCL2 TOTAL     ACCESS:       2426  HIT:       2426  MISS:          0  HIT %:        100  MISS %:          0   MPKI: 0
PSCL2 LOAD TRANSLATION ACCESS:       1278  HIT:       1278  MISS:          0  HIT %:        100  MISS %:          0   MPKI: 0
PSCL2 TRANSLATION FROM L1D PREFETCHER ACCESS:       1148  HIT:       1148  MISS:          0  HIT %:        100  MISS %:          0   MPKI: 0
PSCL2 PREFETCH  REQUESTED:          0  ISSUED:          0  USEFUL:          0  USELESS:          0
PSCL2 USEFUL LOAD PREFETCHES:          0 PREFETCH ISSUED TO LOWER LEVEL:          0  ACCURACY: -nan
PSCL2 TIMELY PREFETCHES:          0 LATE PREFETCHES: 0 DROPPED PREFETCHES: 0
PSCL2 PREFETCHES SAME FILL-ORIGIN LEVEL: 0 DIFFERENT FILL-ORIGIN LEVEL: 0

LLC TOTAL     ACCESS:     802893  HIT:     801789  MISS:       1104  HIT %:    99.8625  MISS %:   0.137503   MPKI: 0.00552
LLC LOAD      ACCESS:     733030  HIT:     732070  MISS:        960  HIT %:     99.869  MISS %:   0.130963   MPKI: 0.0048
LLC RFO       ACCESS:      12775  HIT:      12775  MISS:          0  HIT %:        100  MISS %:          0   MPKI: 0
LLC PREFETCH  ACCESS:      37079  HIT:      37001  MISS:         78  HIT %:    99.7896  MISS %:   0.210362   MPKI: 0.00039
AGUS PREFETCH L1 MISS: 0
LLC WRITEBACK ACCESS:      18796  HIT:      18796  MISS:          0  HIT %:        100  MISS %:          0   MPKI: 0
LLC LOAD TRANSLATION ACCESS:        389  HIT:        388  MISS:          1  HIT %:    99.7429  MISS %:   0.257069   MPKI: 5e-06
LLC TRANSLATION FROM L1D PREFETCHER ACCESS:        824  HIT:        759  MISS:         65  HIT %:    92.1117  MISS %:    7.88835   MPKI: 0.000325
LLC PREFETCH  REQUESTED:          0  ISSUED:          0  USEFUL:         29  USELESS:          7
LLC USEFUL LOAD PREFETCHES:         29 PREFETCH ISSUED TO LOWER LEVEL:         78  ACCURACY: 37.1795
LLC TIMELY PREFETCHES:         29 LATE PREFETCHES: 0 DROPPED PREFETCHES: 0
LLC PREFETCHES SAME FILL-ORIGIN LEVEL: 0 DIFFERENT FILL-ORIGIN LEVEL: 0
LLC AVERAGE MISS LATENCY: 167.19 cycles
LLC RQ	ACCESS:     747018	FORWARD:          0	MERGED:          0	TO_CACHE:     747018
LLC WQ	ACCESS:      18796	FORWARD:          0	MERGED:          0	TO_CACHE:      18796
LLC PQ	ACCESS:      37079	FORWARD:          0	MERGED:          0	TO_CACHE:      37079

LLC Dense regions hint to LLC: 0

RAW hits: 1514951
Loads Generated: 48725350
Loads sent to L1D: 47210399
Stores Generated: 28035942
Stores sent to L1D: 28035950
Major fault: 0 Minor fault: 1271
Allocated PAGES: 1271
Completed 
Accuracy : 96.1558
Number of unique groups: 858723

DRAM Statistics
 CHANNEL 0
 RQ ROW_BUFFER_HIT:         39  ROW_BUFFER_MISS:       1065
 DBUS_CONGESTED:          0
 WQ ROW_BUFFER_HIT:          0  ROW_BUFFER_MISS:          0  FULL:          0

 AVG_CONGESTED_CYCLE: -
 All warmup complete: 2
Channel 0 Bank busy for read cycles: 0
Channel 0 Bank busy for write cycles: 0
Channel 0
Rank 0
0banks busy for read cycles: 664965960
0banks busy for write cycles: 0
1banks busy for read cycles: 149675
1banks busy for write cycles: 0
2banks busy for read cycles: 5717
2banks busy for write cycles: 0
3banks busy for read cycles: 197
3banks busy for write cycles: 0
4banks busy for read cycles: 0
4banks busy for write cycles: 0
5banks busy for read cycles: 0
5banks busy for write cycles: 0
6banks busy for read cycles: 0
6banks busy for write cycles: 0
7banks busy for read cycles: 0
7banks busy for write cycles: 0
8banks busy for read cycles: 0
8banks busy for write cycles: 0

CPU 0 Branch Prediction Accuracy: 99.9106% MPKI: 0.158745 Average ROB Occupancy at Mispredict: 30.7663
Branch types
NOT_BRANCH: 164493960 82.247%
BRANCH_DIRECT_JUMP: 1963388 0.981694%
BRANCH_INDIRECT: 12759698 6.37985%
BRANCH_CONDITIONAL: 10945421 5.47271%
BRANCH_DIRECT_CALL: 4145072 2.07254%
BRANCH_INDIRECT_CALL: 773633 0.386817%
BRANCH_RETURN: 4918671 2.45934%
BRANCH_OTHER: 0 0%

DRAM PAGES: 1048576
Allocated PAGES: 1271
