
*** ChampSim Multicore Out-of-Order Simulator ***

Warmup Instructions: 50000000
Simulation Instructions: 200000000
Number of CPUs: 1
LLC sets: 2048
LLC ways: 16
Off-chip DRAM Size: 4096 MB Channels: 1 Width: 64-bit Data Rate: 6400 MT/s
CPU 0 runs traces/spec2k17/srv_65.champsimtrace.xz
.xz
BTB has LRU replacement policy
ITLB has LRU replacement policy
DTLB has LRU replacement policy
STLB has LRU replacement policy
L1I has LRU replacement policy
L1D has LRU replacement policy
Initialize SRRIP state for L2C
Initialize DRRIP state for LLC
Heartbeat CPU 0 instructions: 10000001 cycles: 2763720 heartbeat IPC: 3.61831 cumulative IPC: 3.61831 (Simulation time: 0 hr 0 min 28 sec) 
Heartbeat CPU 0 instructions: 20000001 cycles: 5521878 heartbeat IPC: 3.62561 cumulative IPC: 3.62196 (Simulation time: 0 hr 0 min 54 sec) 
Heartbeat CPU 0 instructions: 30000003 cycles: 8277885 heartbeat IPC: 3.62844 cumulative IPC: 3.62411 (Simulation time: 0 hr 1 min 21 sec) 
*** Reached end of trace for Core: 0 Repeating trace: traces/spec2k17/srv_65.champsimtrace.xz
Heartbeat CPU 0 instructions: 40000003 cycles: 11034966 heartbeat IPC: 3.62702 cumulative IPC: 3.62484 (Simulation time: 0 hr 1 min 48 sec) 
Heartbeat CPU 0 instructions: 50000001 cycles: 13792853 heartbeat IPC: 3.62596 cumulative IPC: 3.62507 (Simulation time: 0 hr 2 min 13 sec) 

Warmup complete CPU 0 instructions: 50000001 cycles: 13792853 (Simulation time: 0 hr 2 min 13 sec) 

Heartbeat CPU 0 instructions: 60000003 cycles: 35032909 heartbeat IPC: 0.470809 cumulative IPC: 0.470809 (Simulation time: 0 hr 2 min 51 sec) 
*** Reached end of trace for Core: 0 Repeating trace: traces/spec2k17/srv_65.champsimtrace.xz
Heartbeat CPU 0 instructions: 70000002 cycles: 56533170 heartbeat IPC: 0.465111 cumulative IPC: 0.467942 (Simulation time: 0 hr 3 min 30 sec) 
Heartbeat CPU 0 instructions: 80000003 cycles: 78028798 heartbeat IPC: 0.465211 cumulative IPC: 0.467028 (Simulation time: 0 hr 4 min 14 sec) 
Heartbeat CPU 0 instructions: 90000001 cycles: 99468171 heartbeat IPC: 0.466431 cumulative IPC: 0.466879 (Simulation time: 0 hr 5 min 24 sec) 
*** Reached end of trace for Core: 0 Repeating trace: traces/spec2k17/srv_65.champsimtrace.xz
Heartbeat CPU 0 instructions: 100000002 cycles: 120964853 heartbeat IPC: 0.465188 cumulative IPC: 0.46654 (Simulation time: 0 hr 7 min 1 sec) 
Heartbeat CPU 0 instructions: 110000000 cycles: 142299929 heartbeat IPC: 0.468712 cumulative IPC: 0.4669 (Simulation time: 0 hr 8 min 49 sec) 
Heartbeat CPU 0 instructions: 120000003 cycles: 163862699 heartbeat IPC: 0.463762 cumulative IPC: 0.466449 (Simulation time: 0 hr 10 min 12 sec) 
*** Reached end of trace for Core: 0 Repeating trace: traces/spec2k17/srv_65.champsimtrace.xz
Heartbeat CPU 0 instructions: 130000000 cycles: 185304701 heartbeat IPC: 0.466374 cumulative IPC: 0.46644 (Simulation time: 0 hr 12 min 33 sec) 
Heartbeat CPU 0 instructions: 140000003 cycles: 206676333 heartbeat IPC: 0.46791 cumulative IPC: 0.466603 (Simulation time: 0 hr 13 min 56 sec) 
Heartbeat CPU 0 instructions: 150000001 cycles: 228174421 heartbeat IPC: 0.465158 cumulative IPC: 0.466458 (Simulation time: 0 hr 15 min 29 sec) 
*** Reached end of trace for Core: 0 Repeating trace: traces/spec2k17/srv_65.champsimtrace.xz
Heartbeat CPU 0 instructions: 160000003 cycles: 249529237 heartbeat IPC: 0.468279 cumulative IPC: 0.466623 (Simulation time: 0 hr 17 min 33 sec) 
Heartbeat CPU 0 instructions: 170000002 cycles: 271024353 heartbeat IPC: 0.465222 cumulative IPC: 0.466506 (Simulation time: 0 hr 19 min 24 sec) 
Heartbeat CPU 0 instructions: 180000000 cycles: 292503527 heartbeat IPC: 0.465567 cumulative IPC: 0.466434 (Simulation time: 0 hr 21 min 0 sec) 
*** Reached end of trace for Core: 0 Repeating trace: traces/spec2k17/srv_65.champsimtrace.xz
Heartbeat CPU 0 instructions: 190000003 cycles: 313638088 heartbeat IPC: 0.473159 cumulative IPC: 0.466908 (Simulation time: 0 hr 22 min 2 sec) 
Heartbeat CPU 0 instructions: 200000002 cycles: 335248397 heartbeat IPC: 0.462742 cumulative IPC: 0.466628 (Simulation time: 0 hr 23 min 2 sec) 
Heartbeat CPU 0 instructions: 210000000 cycles: 356752494 heartbeat IPC: 0.465028 cumulative IPC: 0.466527 (Simulation time: 0 hr 23 min 53 sec) 
*** Reached end of trace for Core: 0 Repeating trace: traces/spec2k17/srv_65.champsimtrace.xz
Heartbeat CPU 0 instructions: 220000000 cycles: 377840889 heartbeat IPC: 0.474194 cumulative IPC: 0.466971 (Simulation time: 0 hr 25 min 2 sec) 
Heartbeat CPU 0 instructions: 230000001 cycles: 399359252 heartbeat IPC: 0.464719 cumulative IPC: 0.466846 (Simulation time: 0 hr 26 min 8 sec) 
Heartbeat CPU 0 instructions: 240000000 cycles: 420914479 heartbeat IPC: 0.463925 cumulative IPC: 0.466691 (Simulation time: 0 hr 26 min 52 sec) 
*** Reached end of trace for Core: 0 Repeating trace: traces/spec2k17/srv_65.champsimtrace.xz
Heartbeat CPU 0 instructions: 250000002 cycles: 442034149 heartbeat IPC: 0.473492 cumulative IPC: 0.467026 (Simulation time: 0 hr 27 min 30 sec) 
Finished CPU 0 instructions: 200000001 cycles: 428241296 cumulative IPC: 0.467026 (Simulation time: 0 hr 27 min 30 sec) 

ChampSim completed all CPUs

Region of Interest Statistics

CPU 0 cumulative IPC: 0.467026 instructions: 200000001 cycles: 428241296
ITLB TOTAL     ACCESS:   31224560  HIT:   30421850  MISS:     802710  HIT %:    97.4292  MISS %:    2.57076   MPKI: 4.01355
ITLB LOAD TRANSLATION ACCESS:   31224560  HIT:   30421850  MISS:     802710  HIT %:    97.4292  MISS %:    2.57076   MPKI: 4.01355
ITLB PREFETCH  REQUESTED:          0  ISSUED:          0  USEFUL:          0  USELESS:          0
ITLB USEFUL LOAD PREFETCHES:          0 PREFETCH ISSUED TO LOWER LEVEL:          0  ACCURACY: -nan
ITLB TIMELY PREFETCHES:          0 LATE PREFETCHES: 0 DROPPED PREFETCHES: 0
ITLB PREFETCHES SAME FILL-ORIGIN LEVEL: 0 DIFFERENT FILL-ORIGIN LEVEL: 0
ITLB AVERAGE MISS LATENCY: 13.2214 cycles
ITLB RQ	ACCESS:   38108468	FORWARD:          0	MERGED:    6680816	TO_CACHE:   31427652

DTLB TOTAL     ACCESS:   36934592  HIT:   34585228  MISS:    2349364  HIT %:    93.6391  MISS %:    6.36088   MPKI: 11.7468
DTLB LOAD TRANSLATION ACCESS:   36934592  HIT:   34585228  MISS:    2349364  HIT %:    93.6391  MISS %:    6.36088   MPKI: 11.7468
DTLB PREFETCH  REQUESTED:          0  ISSUED:          0  USEFUL:          0  USELESS:          0
DTLB USEFUL LOAD PREFETCHES:          0 PREFETCH ISSUED TO LOWER LEVEL:          0  ACCURACY: -nan
DTLB TIMELY PREFETCHES:          0 LATE PREFETCHES: 0 DROPPED PREFETCHES: 0
DTLB PREFETCHES SAME FILL-ORIGIN LEVEL: 0 DIFFERENT FILL-ORIGIN LEVEL: 0
DTLB AVERAGE MISS LATENCY: 13.5433 cycles
DTLB RQ	ACCESS:   47389561	FORWARD:          0	MERGED:   10302772	TO_CACHE:   37086789

STLB TOTAL     ACCESS:    5890478  HIT:    5576188  MISS:     314290  HIT %:    94.6644  MISS %:    5.33556   MPKI: 1.57145
STLB LOAD TRANSLATION ACCESS:    3152074  HIT:    2838246  MISS:     313828  HIT %:    90.0438  MISS %:    9.95624   MPKI: 1.56914
STLB TRANSLATION FROM L1D PREFETCHER ACCESS:    2738404  HIT:    2737942  MISS:        462  HIT %:    99.9831  MISS %:  0.0168711   MPKI: 0.00231
STLB PREFETCH  REQUESTED:          0  ISSUED:          0  USEFUL:        401  USELESS:         61
STLB USEFUL LOAD PREFETCHES:        401 PREFETCH ISSUED TO LOWER LEVEL:          0  ACCURACY: inf
STLB TIMELY PREFETCHES:        401 LATE PREFETCHES: 89 DROPPED PREFETCHES: 2182
STLB PREFETCHES SAME FILL-ORIGIN LEVEL: 0 DIFFERENT FILL-ORIGIN LEVEL: 0
STLB AVERAGE MISS LATENCY: 45.5259 cycles
STLB RQ	ACCESS:    6623098	FORWARD:          0	MERGED:     730200	TO_CACHE:    5892898

STLB Hit, L1D data hit: 0
STLB Hit, L2C data hit: 0
STLB Hit, LLC data hit: 0
STLB Hit, LLC data miss: 0
STLB STLB hints to L2: 0
L1D TOTAL     ACCESS:   50291487  HIT:   47849921  MISS:    2441566  HIT %:    95.1452  MISS %:    4.85483   MPKI: 12.2078
L1D LOAD      ACCESS:   27383381  HIT:   25282315  MISS:    2101066  HIT %:    92.3272  MISS %:    7.67278   MPKI: 10.5053
L1D RFO       ACCESS:   19459522  HIT:   19128833  MISS:     330689  HIT %:    98.3006  MISS %:    1.69937   MPKI: 1.65344
L1D PREFETCH  ACCESS:    3448584  HIT:    3438773  MISS:       9811  HIT %:    99.7155  MISS %:   0.284494   MPKI: 0.049055
AGUS PREFETCH L1 MISS: 0
L1D PREFETCH  REQUESTED:    7070637  ISSUED:    7070627  USEFUL:       8798  USELESS:       1013
L1D USEFUL LOAD PREFETCHES:       8798 PREFETCH ISSUED TO LOWER LEVEL:      18062  ACCURACY: 48.71
L1D TIMELY PREFETCHES:       8798 LATE PREFETCHES: 8213 DROPPED PREFETCHES: 2200
L1D PREFETCHES SAME FILL-ORIGIN LEVEL: 18062 DIFFERENT FILL-ORIGIN LEVEL: 0
L1D AVERAGE MISS LATENCY: 923682 cycles
L1D RQ	ACCESS:   41970147	FORWARD:          0	MERGED:   14226703	TO_CACHE:   27522625
L1D WQ	ACCESS:   20212215	FORWARD:     223997	MERGED:     345279	TO_CACHE:   19866936
L1D PQ	ACCESS:    3599603	FORWARD:          0	MERGED:     125401	TO_CACHE:    3471024

L1D UNIQUE REGIONS ACCESSED: 0
L1D REGIONS CONFLICTS: 0
L1D Cross Page Prefetch Requests: 3151633
L1D Same Page Prefetch Requests: 704521
L1D ROI Sum of L1D PQ occupancy: 48406341
L1D PREFETCHES PUSHED FROM L2C: 0
L1I TOTAL     ACCESS:   36280687  HIT:   31176253  MISS:    5104434  HIT %:    85.9307  MISS %:    14.0693   MPKI: 25.5222
L1I LOAD      ACCESS:   36280687  HIT:   31176253  MISS:    5104434  HIT %:    85.9307  MISS %:    14.0693   MPKI: 25.5222
L1I PREFETCH  REQUESTED:          0  ISSUED:          0  USEFUL:          0  USELESS:          0
L1I USEFUL LOAD PREFETCHES:          0 PREFETCH ISSUED TO LOWER LEVEL:          0  ACCURACY: -nan
L1I TIMELY PREFETCHES:          0 LATE PREFETCHES: 0 DROPPED PREFETCHES: 0
L1I PREFETCHES SAME FILL-ORIGIN LEVEL: 0 DIFFERENT FILL-ORIGIN LEVEL: 0
L1I AVERAGE MISS LATENCY: 24.5379 cycles
L1I RQ	ACCESS:   57191675	FORWARD:          0	MERGED:   19083207	TO_CACHE:   38108468

BTB TOTAL     ACCESS:   22272077  HIT:   18096398  MISS:    4175679  HIT %:    81.2515  MISS %:    18.7485   MPKI: 20.8784
BTB BRANCH_DIRECT_JUMP	ACCESS:    1788227  HIT:    1559566  MISS:     228661
BTB BRANCH_INDIRECT	ACCESS:    9557706  HIT:    7536372  MISS:    2021334
BTB BRANCH_CONDITIONAL	ACCESS:    4545175  HIT:    4171652  MISS:     373523
BTB BRANCH_DIRECT_CALL	ACCESS:    2503115  HIT:    2056656  MISS:     446459
BTB BRANCH_INDIRECT_CALL	ACCESS:     686553  HIT:     645372  MISS:      41181
BTB BRANCH_RETURN	ACCESS:    3191301  HIT:    2126780  MISS:    1064521
BTB BRANCH_OTHER ACCESS:          0  HIT:          0  MISS:          0

L2C TOTAL     ACCESS:    8973133  HIT:    5954877  MISS:    3018256  HIT %:    66.3634  MISS %:    33.6366   MPKI: 15.0913
L2C LOAD      ACCESS:    7197165  HIT:    4543192  MISS:    2653973  HIT %:    63.1247  MISS %:    36.8753   MPKI: 13.2699
L2C DATA LOAD MPKI: 4.48851
L2C INSTRUCTION LOAD MPKI: 8.78135
L2C RFO       ACCESS:     330651  HIT:     187323  MISS:     143328  HIT %:    56.6528  MISS %:    43.3472   MPKI: 0.71664
L2C PREFETCH  ACCESS:      18060  HIT:      15427  MISS:       2633  HIT %:    85.4208  MISS %:    14.5792   MPKI: 0.013165
AGUS PREFETCH L1 MISS: 0
L2C DATA PREFETCH MPKI: 0.013165
L2C INSTRUCTION PREFETCH MPKI: 0
L2C WRITEBACK ACCESS:    1008475  HIT:     956059  MISS:      52416  HIT %:    94.8024  MISS %:    5.19755   MPKI: 0.26208
L2C LOAD TRANSLATION ACCESS:     415062  HIT:     250169  MISS:     164893  HIT %:    60.2727  MISS %:    39.7273   MPKI: 0.824465
L2C TRANSLATION FROM L1D PREFETCHER ACCESS:       3720  HIT:       2707  MISS:       1013  HIT %:    72.7688  MISS %:    27.2312   MPKI: 0.005065
L2C PREFETCH  REQUESTED:          0  ISSUED:          0  USEFUL:       1702  USELESS:       1937
L2C USEFUL LOAD PREFETCHES:       1702 PREFETCH ISSUED TO LOWER LEVEL:       2633  ACCURACY: 64.6411
L2C TIMELY PREFETCHES:       1702 LATE PREFETCHES: 0 DROPPED PREFETCHES: 0
L2C PREFETCHES SAME FILL-ORIGIN LEVEL: 0 DIFFERENT FILL-ORIGIN LEVEL: 0
L2C AVERAGE MISS LATENCY: 43.7042 cycles
L2C RQ	ACCESS:    7946720	FORWARD:          0	MERGED:          0	TO_CACHE:    7946598
L2C WQ	ACCESS:    1008475	FORWARD:        124	MERGED:          0	TO_CACHE:    1008475
L2C PQ	ACCESS:      18062	FORWARD:          0	MERGED:          0	TO_CACHE:      18060

L2C Instructions Evicting Data 628463
L2C Translations Evicting Data 61790
L2C Data Evicting Data 386911
L2C Instructions Evicting Instructions 1033333
L2C Translations Evicting Instructions 95028
L2C Data Evicting Instructions 596911
L2C Instructions Evicting Translations 94474
L2C Translations Evicting Translations 9088
L2C Data Evicting Translations 59842
L2C Dense regions hint from L2: 0
PSCL5 TOTAL     ACCESS:     316307  HIT:     316307  MISS:          0  HIT %:        100  MISS %:          0   MPKI: 0
PSCL5 LOAD TRANSLATION ACCESS:     313739  HIT:     313739  MISS:          0  HIT %:        100  MISS %:          0   MPKI: 0
PSCL5 TRANSLATION FROM L1D PREFETCHER ACCESS:       2568  HIT:       2568  MISS:          0  HIT %:        100  MISS %:          0   MPKI: 0
PSCL5 PREFETCH  REQUESTED:          0  ISSUED:          0  USEFUL:          0  USELESS:          0
PSCL5 USEFUL LOAD PREFETCHES:          0 PREFETCH ISSUED TO LOWER LEVEL:          0  ACCURACY: -nan
PSCL5 TIMELY PREFETCHES:          0 LATE PREFETCHES: 0 DROPPED PREFETCHES: 0
PSCL5 PREFETCHES SAME FILL-ORIGIN LEVEL: 0 DIFFERENT FILL-ORIGIN LEVEL: 0

PSCL4 TOTAL     ACCESS:     309391  HIT:     307839  MISS:       1552  HIT %:    99.4984  MISS %:   0.501631   MPKI: 0.00776
PSCL4 LOAD TRANSLATION ACCESS:     306957  HIT:     305405  MISS:       1552  HIT %:    99.4944  MISS %:   0.505608   MPKI: 0.00776
PSCL4 TRANSLATION FROM L1D PREFETCHER ACCESS:       2434  HIT:       2434  MISS:          0  HIT %:        100  MISS %:          0   MPKI: 0
PSCL4 PREFETCH  REQUESTED:          0  ISSUED:          0  USEFUL:          0  USELESS:          0
PSCL4 USEFUL LOAD PREFETCHES:          0 PREFETCH ISSUED TO LOWER LEVEL:          0  ACCURACY: -nan
PSCL4 TIMELY PREFETCHES:          0 LATE PREFETCHES: 0 DROPPED PREFETCHES: 0
PSCL4 PREFETCHES SAME FILL-ORIGIN LEVEL: 0 DIFFERENT FILL-ORIGIN LEVEL: 0

PSCL3 TOTAL     ACCESS:     315123  HIT:     313571  MISS:       1552  HIT %:    99.5075  MISS %:   0.492506   MPKI: 0.00776
PSCL3 LOAD TRANSLATION ACCESS:     312583  HIT:     311031  MISS:       1552  HIT %:    99.5035  MISS %:   0.496508   MPKI: 0.00776
PSCL3 TRANSLATION FROM L1D PREFETCHER ACCESS:       2540  HIT:       2540  MISS:          0  HIT %:        100  MISS %:          0   MPKI: 0
PSCL3 PREFETCH  REQUESTED:          0  ISSUED:          0  USEFUL:          0  USELESS:          0
PSCL3 USEFUL LOAD PREFETCHES:          0 PREFETCH ISSUED TO LOWER LEVEL:          0  ACCURACY: -nan
PSCL3 TIMELY PREFETCHES:          0 LATE PREFETCHES: 0 DROPPED PREFETCHES: 0
PSCL3 PREFETCHES SAME FILL-ORIGIN LEVEL: 0 DIFFERENT FILL-ORIGIN LEVEL: 0

PSCL2 TOTAL     ACCESS:     314322  HIT:     215704  MISS:      98618  HIT %:    68.6252  MISS %:    31.3748   MPKI: 0.49309
PSCL2 LOAD TRANSLATION ACCESS:     314138  HIT:     215520  MISS:      98618  HIT %:    68.6068  MISS %:    31.3932   MPKI: 0.49309
PSCL2 TRANSLATION FROM L1D PREFETCHER ACCESS:        184  HIT:        184  MISS:          0  HIT %:        100  MISS %:          0   MPKI: 0
PSCL2 PREFETCH  REQUESTED:          0  ISSUED:          0  USEFUL:          0  USELESS:          0
PSCL2 USEFUL LOAD PREFETCHES:          0 PREFETCH ISSUED TO LOWER LEVEL:          0  ACCURACY: -nan
PSCL2 TIMELY PREFETCHES:          0 LATE PREFETCHES: 0 DROPPED PREFETCHES: 0
PSCL2 PREFETCHES SAME FILL-ORIGIN LEVEL: 0 DIFFERENT FILL-ORIGIN LEVEL: 0

LLC TOTAL     ACCESS:    3387099  HIT:    3104661  MISS:     282438  HIT %:    91.6614  MISS %:    8.33864   MPKI: 1.41219
LLC LOAD      ACCESS:    2653973  HIT:    2430147  MISS:     223826  HIT %:    91.5664  MISS %:    8.43362   MPKI: 1.11913
LLC RFO       ACCESS:     143328  HIT:      96150  MISS:      47178  HIT %:    67.0839  MISS %:    32.9161   MPKI: 0.23589
LLC PREFETCH  ACCESS:       2633  HIT:       2590  MISS:         43  HIT %:    98.3669  MISS %:    1.63312   MPKI: 0.000215
AGUS PREFETCH L1 MISS: 0
LLC WRITEBACK ACCESS:     421259  HIT:     419408  MISS:       1851  HIT %:    99.5606  MISS %:   0.439397   MPKI: 0.009255
LLC LOAD TRANSLATION ACCESS:     164893  HIT:     155413  MISS:       9480  HIT %:    94.2508  MISS %:    5.74918   MPKI: 0.0474
LLC TRANSLATION FROM L1D PREFETCHER ACCESS:       1013  HIT:        953  MISS:         60  HIT %:     94.077  MISS %:      5.923   MPKI: 0.0003
LLC PREFETCH  REQUESTED:          0  ISSUED:          0  USEFUL:         18  USELESS:         73
LLC USEFUL LOAD PREFETCHES:         18 PREFETCH ISSUED TO LOWER LEVEL:         43  ACCURACY: 41.8605
LLC TIMELY PREFETCHES:         18 LATE PREFETCHES: 0 DROPPED PREFETCHES: 0
LLC PREFETCHES SAME FILL-ORIGIN LEVEL: 0 DIFFERENT FILL-ORIGIN LEVEL: 0
LLC AVERAGE MISS LATENCY: 152.012 cycles
LLC RQ	ACCESS:    2963207	FORWARD:          0	MERGED:          0	TO_CACHE:    2963207
LLC WQ	ACCESS:     421259	FORWARD:          0	MERGED:          0	TO_CACHE:     421259
LLC PQ	ACCESS:       2633	FORWARD:          0	MERGED:          0	TO_CACHE:       2633

LLC Dense regions hint to LLC: 0

RAW hits: 2857248
Loads Generated: 44827397
Loads sent to L1D: 41970147
Stores Generated: 20212209
Stores sent to L1D: 20212215
Major fault: 0 Minor fault: 5727
Allocated PAGES: 5727
Completed 
Accuracy : 87.2764
Number of unique groups: 3638252

DRAM Statistics
 CHANNEL 0
 RQ ROW_BUFFER_HIT:      53192  ROW_BUFFER_MISS:     227394
 DBUS_CONGESTED:        167
 WQ ROW_BUFFER_HIT:      26426  ROW_BUFFER_MISS:     182499  FULL:          0

 AVG_CONGESTED_CYCLE: 4
 All warmup complete: 2
Channel 0 Bank busy for read cycles: 0
Channel 0 Bank busy for write cycles: 0
Channel 0
Rank 0
0banks busy for read cycles: 374438033
0banks busy for write cycles: 118260
1banks busy for read cycles: 25835367
1banks busy for write cycles: 16527259
2banks busy for read cycles: 3501711
2banks busy for write cycles: 3769195
3banks busy for read cycles: 445748
3banks busy for write cycles: 1228035
4banks busy for read cycles: 194375
4banks busy for write cycles: 667281
5banks busy for read cycles: 99616
5banks busy for write cycles: 426934
6banks busy for read cycles: 70660
6banks busy for write cycles: 295776
7banks busy for read cycles: 53763
7banks busy for write cycles: 249088
8banks busy for read cycles: 64700
8banks busy for write cycles: 255496

CPU 0 Branch Prediction Accuracy: 99.8638% MPKI: 0.244845 Average ROB Occupancy at Mispredict: 56.7744
Branch types
NOT_BRANCH: 164053662 82.0268%
BRANCH_DIRECT_JUMP: 1788227 0.894113%
BRANCH_INDIRECT: 9557706 4.77885%
BRANCH_CONDITIONAL: 18219125 9.10956%
BRANCH_DIRECT_CALL: 2503115 1.25156%
BRANCH_INDIRECT_CALL: 686553 0.343276%
BRANCH_RETURN: 3191301 1.59565%
BRANCH_OTHER: 0 0%

DRAM PAGES: 1048576
Allocated PAGES: 5727
