
*** ChampSim Multicore Out-of-Order Simulator ***

Warmup Instructions: 50000000
Simulation Instructions: 200000000
Number of CPUs: 1
LLC sets: 2048
LLC ways: 16
Off-chip DRAM Size: 4096 MB Channels: 1 Width: 64-bit Data Rate: 6400 MT/s
CPU 0 runs traces/spec2k17/srv_9.champsimtrace.xz
.xz
BTB has LRU replacement policy
ITLB has LRU replacement policy
DTLB has LRU replacement policy
STLB has LRU replacement policy
L1I has LRU replacement policy
L1D has LRU replacement policy
Initialize SRRIP state for L2C
Initialize DRRIP state for LLC
Heartbeat CPU 0 instructions: 10000001 cycles: 3526892 heartbeat IPC: 2.83536 cumulative IPC: 2.83536 (Simulation time: 0 hr 0 min 36 sec) 
Heartbeat CPU 0 instructions: 20000002 cycles: 7420888 heartbeat IPC: 2.56806 cumulative IPC: 2.6951 (Simulation time: 0 hr 1 min 24 sec) 
Heartbeat CPU 0 instructions: 30000000 cycles: 10375519 heartbeat IPC: 3.38452 cumulative IPC: 2.89142 (Simulation time: 0 hr 1 min 44 sec) 
*** Reached end of trace for Core: 0 Repeating trace: traces/spec2k17/srv_9.champsimtrace.xz
Heartbeat CPU 0 instructions: 40000001 cycles: 13823834 heartbeat IPC: 2.89997 cumulative IPC: 2.89355 (Simulation time: 0 hr 2 min 15 sec) 
Heartbeat CPU 0 instructions: 50000003 cycles: 17623411 heartbeat IPC: 2.63187 cumulative IPC: 2.83714 (Simulation time: 0 hr 2 min 50 sec) 

Warmup complete CPU 0 instructions: 50000003 cycles: 17623411 (Simulation time: 0 hr 2 min 50 sec) 

Heartbeat CPU 0 instructions: 60000001 cycles: 41538275 heartbeat IPC: 0.41815 cumulative IPC: 0.41815 (Simulation time: 0 hr 3 min 41 sec) 
*** Reached end of trace for Core: 0 Repeating trace: traces/spec2k17/srv_9.champsimtrace.xz
Heartbeat CPU 0 instructions: 70000001 cycles: 67726287 heartbeat IPC: 0.381854 cumulative IPC: 0.399179 (Simulation time: 0 hr 4 min 36 sec) 
Heartbeat CPU 0 instructions: 80000000 cycles: 99658760 heartbeat IPC: 0.313161 cumulative IPC: 0.365696 (Simulation time: 0 hr 5 min 18 sec) 
Heartbeat CPU 0 instructions: 90000001 cycles: 123380902 heartbeat IPC: 0.421547 cumulative IPC: 0.378224 (Simulation time: 0 hr 6 min 12 sec) 
*** Reached end of trace for Core: 0 Repeating trace: traces/spec2k17/srv_9.champsimtrace.xz
Heartbeat CPU 0 instructions: 100000003 cycles: 148441914 heartbeat IPC: 0.399026 cumulative IPC: 0.382209 (Simulation time: 0 hr 7 min 44 sec) 
Heartbeat CPU 0 instructions: 110000000 cycles: 181254320 heartbeat IPC: 0.304763 cumulative IPC: 0.366679 (Simulation time: 0 hr 9 min 14 sec) 
Heartbeat CPU 0 instructions: 120000001 cycles: 204895101 heartbeat IPC: 0.422998 cumulative IPC: 0.373788 (Simulation time: 0 hr 11 min 53 sec) 
*** Reached end of trace for Core: 0 Repeating trace: traces/spec2k17/srv_9.champsimtrace.xz
Heartbeat CPU 0 instructions: 130000003 cycles: 228950845 heartbeat IPC: 0.415701 cumulative IPC: 0.378559 (Simulation time: 0 hr 13 min 51 sec) 
Heartbeat CPU 0 instructions: 140000001 cycles: 262428643 heartbeat IPC: 0.298705 cumulative IPC: 0.367639 (Simulation time: 0 hr 14 min 39 sec) 
Heartbeat CPU 0 instructions: 150000002 cycles: 286191912 heartbeat IPC: 0.420818 cumulative IPC: 0.372344 (Simulation time: 0 hr 15 min 54 sec) 
*** Reached end of trace for Core: 0 Repeating trace: traces/spec2k17/srv_9.champsimtrace.xz
Heartbeat CPU 0 instructions: 160000001 cycles: 309302114 heartbeat IPC: 0.432709 cumulative IPC: 0.377127 (Simulation time: 0 hr 17 min 1 sec) 
Heartbeat CPU 0 instructions: 170000000 cycles: 343000951 heartbeat IPC: 0.296746 cumulative IPC: 0.368802 (Simulation time: 0 hr 17 min 56 sec) 
Heartbeat CPU 0 instructions: 180000000 cycles: 367350802 heartbeat IPC: 0.41068 cumulative IPC: 0.371718 (Simulation time: 0 hr 19 min 11 sec) 
*** Reached end of trace for Core: 0 Repeating trace: traces/spec2k17/srv_9.champsimtrace.xz
Heartbeat CPU 0 instructions: 190000000 cycles: 389439859 heartbeat IPC: 0.452713 cumulative IPC: 0.37653 (Simulation time: 0 hr 20 min 4 sec) 
Heartbeat CPU 0 instructions: 200000000 cycles: 422836631 heartbeat IPC: 0.29943 cumulative IPC: 0.370175 (Simulation time: 0 hr 20 min 49 sec) 
Heartbeat CPU 0 instructions: 210000000 cycles: 448477349 heartbeat IPC: 0.390005 cumulative IPC: 0.371356 (Simulation time: 0 hr 21 min 26 sec) 
*** Reached end of trace for Core: 0 Repeating trace: traces/spec2k17/srv_9.champsimtrace.xz
Heartbeat CPU 0 instructions: 220000000 cycles: 468434248 heartbeat IPC: 0.50108 cumulative IPC: 0.377098 (Simulation time: 0 hr 22 min 0 sec) 
Heartbeat CPU 0 instructions: 230000000 cycles: 503400668 heartbeat IPC: 0.285989 cumulative IPC: 0.37054 (Simulation time: 0 hr 22 min 41 sec) 
Heartbeat CPU 0 instructions: 240000000 cycles: 529403513 heartbeat IPC: 0.384573 cumulative IPC: 0.371253 (Simulation time: 0 hr 23 min 12 sec) 
*** Reached end of trace for Core: 0 Repeating trace: traces/spec2k17/srv_9.champsimtrace.xz
Heartbeat CPU 0 instructions: 250000003 cycles: 547476793 heartbeat IPC: 0.553303 cumulative IPC: 0.377463 (Simulation time: 0 hr 23 min 40 sec) 
Finished CPU 0 instructions: 200000000 cycles: 529853382 cumulative IPC: 0.377463 (Simulation time: 0 hr 23 min 40 sec) 

ChampSim completed all CPUs

Region of Interest Statistics

CPU 0 cumulative IPC: 0.377463 instructions: 200000000 cycles: 529853382
ITLB TOTAL     ACCESS:   41431831  HIT:   41291719  MISS:     140112  HIT %:    99.6618  MISS %:   0.338175   MPKI: 0.70056
ITLB LOAD TRANSLATION ACCESS:   41431831  HIT:   41291719  MISS:     140112  HIT %:    99.6618  MISS %:   0.338175   MPKI: 0.70056
ITLB PREFETCH  REQUESTED:          0  ISSUED:          0  USEFUL:          0  USELESS:          0
ITLB USEFUL LOAD PREFETCHES:          0 PREFETCH ISSUED TO LOWER LEVEL:          0  ACCURACY: -nan
ITLB TIMELY PREFETCHES:          0 LATE PREFETCHES: 0 DROPPED PREFETCHES: 0
ITLB PREFETCHES SAME FILL-ORIGIN LEVEL: 0 DIFFERENT FILL-ORIGIN LEVEL: 0
ITLB AVERAGE MISS LATENCY: 18.9326 cycles
ITLB RQ	ACCESS:   45002746	FORWARD:          0	MERGED:    3532198	TO_CACHE:   41470548

DTLB TOTAL     ACCESS:   42491234  HIT:   33980845  MISS:    8510389  HIT %:    79.9714  MISS %:    20.0286   MPKI: 42.5519
DTLB LOAD TRANSLATION ACCESS:   42491234  HIT:   33980845  MISS:    8510389  HIT %:    79.9714  MISS %:    20.0286   MPKI: 42.5519
DTLB PREFETCH  REQUESTED:          0  ISSUED:          0  USEFUL:          0  USELESS:          0
DTLB USEFUL LOAD PREFETCHES:          0 PREFETCH ISSUED TO LOWER LEVEL:          0  ACCURACY: -nan
DTLB TIMELY PREFETCHES:          0 LATE PREFETCHES: 0 DROPPED PREFETCHES: 0
DTLB PREFETCHES SAME FILL-ORIGIN LEVEL: 0 DIFFERENT FILL-ORIGIN LEVEL: 0
DTLB AVERAGE MISS LATENCY: 8.7375 cycles
DTLB RQ	ACCESS:   55787375	FORWARD:          0	MERGED:   13179966	TO_CACHE:   42607409

STLB TOTAL     ACCESS:   21195991  HIT:   21097954  MISS:      98037  HIT %:    99.5375  MISS %:   0.462526   MPKI: 0.490185
STLB LOAD TRANSLATION ACCESS:    8650501  HIT:    8552608  MISS:      97893  HIT %:    98.8684  MISS %:    1.13165   MPKI: 0.489465
STLB TRANSLATION FROM L1D PREFETCHER ACCESS:   12545490  HIT:   12545346  MISS:        144  HIT %:    99.9989  MISS %: 0.00114782   MPKI: 0.00072
STLB PREFETCH  REQUESTED:          0  ISSUED:          0  USEFUL:        127  USELESS:         17
STLB USEFUL LOAD PREFETCHES:        127 PREFETCH ISSUED TO LOWER LEVEL:          0  ACCURACY: inf
STLB TIMELY PREFETCHES:        127 LATE PREFETCHES: 40 DROPPED PREFETCHES: 5480
STLB PREFETCHES SAME FILL-ORIGIN LEVEL: 0 DIFFERENT FILL-ORIGIN LEVEL: 0
STLB AVERAGE MISS LATENCY: 87.7107 cycles
STLB RQ	ACCESS:   27658023	FORWARD:          0	MERGED:    6456490	TO_CACHE:   21201533

STLB Hit, L1D data hit: 0
STLB Hit, L2C data hit: 0
STLB Hit, LLC data hit: 0
STLB Hit, LLC data miss: 0
STLB STLB hints to L2: 0
L1D TOTAL     ACCESS:   67100355  HIT:   53694670  MISS:   13405685  HIT %:    80.0214  MISS %:    19.9786   MPKI: 67.0284
L1D LOAD      ACCESS:   40168707  HIT:   29848285  MISS:   10320422  HIT %:    74.3073  MISS %:    25.6927   MPKI: 51.6021
L1D RFO       ACCESS:   14336913  HIT:   14117184  MISS:     219729  HIT %:    98.4674  MISS %:    1.53261   MPKI: 1.09865
L1D PREFETCH  ACCESS:   12594735  HIT:    9729201  MISS:    2865534  HIT %:    77.2482  MISS %:    22.7518   MPKI: 14.3277
AGUS PREFETCH L1 MISS: 0
L1D PREFETCH  REQUESTED:   38292017  ISSUED:   38291975  USEFUL:    2860048  USELESS:       5486
L1D USEFUL LOAD PREFETCHES:    2860048 PREFETCH ISSUED TO LOWER LEVEL:    5607240  ACCURACY: 51.0063
L1D TIMELY PREFETCHES:    2860048 LATE PREFETCHES: 2741706 DROPPED PREFETCHES: 6629
L1D PREFETCHES SAME FILL-ORIGIN LEVEL: 5607240 DIFFERENT FILL-ORIGIN LEVEL: 0
L1D AVERAGE MISS LATENCY: 5.78065e+07 cycles
L1D RQ	ACCESS:   58972298	FORWARD:          0	MERGED:   17684835	TO_CACHE:   41181151
L1D WQ	ACCESS:   18280129	FORWARD:     157079	MERGED:    3673905	TO_CACHE:   14606224
L1D PQ	ACCESS:   19284453	FORWARD:          0	MERGED:     226164	TO_CACHE:   19007522

L1D UNIQUE REGIONS ACCESSED: 0
L1D REGIONS CONFLICTS: 0
L1D Cross Page Prefetch Requests: 18721616
L1D Same Page Prefetch Requests: 5266540
L1D ROI Sum of L1D PQ occupancy: 263063100
L1D PREFETCHES PUSHED FROM L2C: 0
L1I TOTAL     ACCESS:   44761280  HIT:   44068772  MISS:     692508  HIT %:    98.4529  MISS %:    1.54711   MPKI: 3.46254
L1I LOAD      ACCESS:   44761280  HIT:   44068772  MISS:     692508  HIT %:    98.4529  MISS %:    1.54711   MPKI: 3.46254
L1I PREFETCH  REQUESTED:          0  ISSUED:          0  USEFUL:          0  USELESS:          0
L1I USEFUL LOAD PREFETCHES:          0 PREFETCH ISSUED TO LOWER LEVEL:          0  ACCURACY: -nan
L1I TIMELY PREFETCHES:          0 LATE PREFETCHES: 0 DROPPED PREFETCHES: 0
L1I PREFETCHES SAME FILL-ORIGIN LEVEL: 0 DIFFERENT FILL-ORIGIN LEVEL: 0
L1I AVERAGE MISS LATENCY: 48.7433 cycles
L1I RQ	ACCESS:   72753724	FORWARD:          0	MERGED:   27750978	TO_CACHE:   45002746

BTB TOTAL     ACCESS:   41124960  HIT:   38918352  MISS:    2206608  HIT %:    94.6344  MISS %:    5.36562   MPKI: 11.033
BTB BRANCH_DIRECT_JUMP	ACCESS:    1846529  HIT:    1816856  MISS:      29673
BTB BRANCH_INDIRECT	ACCESS:   24302767  HIT:   22906219  MISS:    1396548
BTB BRANCH_CONDITIONAL	ACCESS:    9638325  HIT:    9593200  MISS:      45125
BTB BRANCH_DIRECT_CALL	ACCESS:    2098552  HIT:    2045391  MISS:      53161
BTB BRANCH_INDIRECT_CALL	ACCESS:     567787  HIT:     550197  MISS:      17590
BTB BRANCH_RETURN	ACCESS:    2671000  HIT:    2006489  MISS:     664511
BTB BRANCH_OTHER ACCESS:          0  HIT:          0  MISS:          0

L2C TOTAL     ACCESS:   14574929  HIT:   13026117  MISS:    1548812  HIT %:    89.3735  MISS %:    10.6265   MPKI: 7.74406
L2C LOAD      ACCESS:    8271223  HIT:    6853140  MISS:    1418083  HIT %:    82.8552  MISS %:    17.1448   MPKI: 7.09042
L2C DATA LOAD MPKI: 5.83041
L2C INSTRUCTION LOAD MPKI: 1.26001
L2C RFO       ACCESS:     219723  HIT:     147818  MISS:      71905  HIT %:    67.2747  MISS %:    32.7253   MPKI: 0.359525
L2C PREFETCH  ACCESS:    5607240  HIT:    5605852  MISS:       1388  HIT %:    99.9752  MISS %:  0.0247537   MPKI: 0.00694
AGUS PREFETCH L1 MISS: 0
L2C DATA PREFETCH MPKI: 0.00694
L2C INSTRUCTION PREFETCH MPKI: 0
L2C WRITEBACK ACCESS:     349629  HIT:     341282  MISS:       8347  HIT %:    97.6126  MISS %:    2.38739   MPKI: 0.041735
L2C LOAD TRANSLATION ACCESS:     118347  HIT:      70453  MISS:      47894  HIT %:    59.5309  MISS %:    40.4691   MPKI: 0.23947
L2C TRANSLATION FROM L1D PREFETCHER ACCESS:       8767  HIT:       7572  MISS:       1195  HIT %:    86.3693  MISS %:    13.6307   MPKI: 0.005975
L2C PREFETCH  REQUESTED:          0  ISSUED:          0  USEFUL:        912  USELESS:       1659
L2C USEFUL LOAD PREFETCHES:        912 PREFETCH ISSUED TO LOWER LEVEL:       1388  ACCURACY: 65.7061
L2C TIMELY PREFETCHES:        912 LATE PREFETCHES: 0 DROPPED PREFETCHES: 0
L2C PREFETCHES SAME FILL-ORIGIN LEVEL: 0 DIFFERENT FILL-ORIGIN LEVEL: 0
L2C AVERAGE MISS LATENCY: 121.466 cycles
L2C RQ	ACCESS:    8618067	FORWARD:          0	MERGED:          0	TO_CACHE:    8618060
L2C WQ	ACCESS:     349629	FORWARD:          7	MERGED:          0	TO_CACHE:     349629
L2C PQ	ACCESS:    5607240	FORWARD:          0	MERGED:          0	TO_CACHE:    5607240

L2C Instructions Evicting Data 155951
L2C Translations Evicting Data 32778
L2C Data Evicting Data 1052142
L2C Instructions Evicting Instructions 82086
L2C Translations Evicting Instructions 13879
L2C Data Evicting Instructions 154921
L2C Instructions Evicting Translations 13964
L2C Translations Evicting Translations 2432
L2C Data Evicting Translations 32312
L2C Dense regions hint from L2: 0
PSCL5 TOTAL     ACCESS:     103378  HIT:     103378  MISS:          0  HIT %:        100  MISS %:          0   MPKI: 0
PSCL5 LOAD TRANSLATION ACCESS:      97853  HIT:      97853  MISS:          0  HIT %:        100  MISS %:          0   MPKI: 0
PSCL5 TRANSLATION FROM L1D PREFETCHER ACCESS:       5525  HIT:       5525  MISS:          0  HIT %:        100  MISS %:          0   MPKI: 0
PSCL5 PREFETCH  REQUESTED:          0  ISSUED:          0  USEFUL:          0  USELESS:          0
PSCL5 USEFUL LOAD PREFETCHES:          0 PREFETCH ISSUED TO LOWER LEVEL:          0  ACCURACY: -nan
PSCL5 TIMELY PREFETCHES:          0 LATE PREFETCHES: 0 DROPPED PREFETCHES: 0
PSCL5 PREFETCHES SAME FILL-ORIGIN LEVEL: 0 DIFFERENT FILL-ORIGIN LEVEL: 0

PSCL4 TOTAL     ACCESS:      93205  HIT:      93107  MISS:         98  HIT %:    99.8949  MISS %:   0.105145   MPKI: 0.00049
PSCL4 LOAD TRANSLATION ACCESS:      87982  HIT:      87884  MISS:         98  HIT %:    99.8886  MISS %:   0.111386   MPKI: 0.00049
PSCL4 TRANSLATION FROM L1D PREFETCHER ACCESS:       5223  HIT:       5223  MISS:          0  HIT %:        100  MISS %:          0   MPKI: 0
PSCL4 PREFETCH  REQUESTED:          0  ISSUED:          0  USEFUL:          0  USELESS:          0
PSCL4 USEFUL LOAD PREFETCHES:          0 PREFETCH ISSUED TO LOWER LEVEL:          0  ACCURACY: -nan
PSCL4 TIMELY PREFETCHES:          0 LATE PREFETCHES: 0 DROPPED PREFETCHES: 0
PSCL4 PREFETCHES SAME FILL-ORIGIN LEVEL: 0 DIFFERENT FILL-ORIGIN LEVEL: 0

PSCL3 TOTAL     ACCESS:     102604  HIT:     102374  MISS:        230  HIT %:    99.7758  MISS %:   0.224163   MPKI: 0.00115
PSCL3 LOAD TRANSLATION ACCESS:      97643  HIT:      97413  MISS:        230  HIT %:    99.7644  MISS %:   0.235552   MPKI: 0.00115
PSCL3 TRANSLATION FROM L1D PREFETCHER ACCESS:       4961  HIT:       4961  MISS:          0  HIT %:        100  MISS %:          0   MPKI: 0
PSCL3 PREFETCH  REQUESTED:          0  ISSUED:          0  USEFUL:          0  USELESS:          0
PSCL3 USEFUL LOAD PREFETCHES:          0 PREFETCH ISSUED TO LOWER LEVEL:          0  ACCURACY: -nan
PSCL3 TIMELY PREFETCHES:          0 LATE PREFETCHES: 0 DROPPED PREFETCHES: 0
PSCL3 PREFETCHES SAME FILL-ORIGIN LEVEL: 0 DIFFERENT FILL-ORIGIN LEVEL: 0

PSCL2 TOTAL     ACCESS:      98445  HIT:      78194  MISS:      20251  HIT %:    79.4291  MISS %:    20.5709   MPKI: 0.101255
PSCL2 LOAD TRANSLATION ACCESS:      97938  HIT:      77687  MISS:      20251  HIT %:    79.3226  MISS %:    20.6774   MPKI: 0.101255
PSCL2 TRANSLATION FROM L1D PREFETCHER ACCESS:        507  HIT:        507  MISS:          0  HIT %:        100  MISS %:          0   MPKI: 0
PSCL2 PREFETCH  REQUESTED:          0  ISSUED:          0  USEFUL:          0  USELESS:          0
PSCL2 USEFUL LOAD PREFETCHES:          0 PREFETCH ISSUED TO LOWER LEVEL:          0  ACCURACY: -nan
PSCL2 TIMELY PREFETCHES:          0 LATE PREFETCHES: 0 DROPPED PREFETCHES: 0
PSCL2 PREFETCHES SAME FILL-ORIGIN LEVEL: 0 DIFFERENT FILL-ORIGIN LEVEL: 0

LLC TOTAL     ACCESS:    1716682  HIT:     438121  MISS:    1278561  HIT %:    25.5214  MISS %:    74.4786   MPKI: 6.39281
LLC LOAD      ACCESS:    1418083  HIT:     258963  MISS:    1159120  HIT %:    18.2615  MISS %:    81.7385   MPKI: 5.7956
LLC RFO       ACCESS:      71905  HIT:      11931  MISS:      59974  HIT %:    16.5927  MISS %:    83.4073   MPKI: 0.29987
LLC PREFETCH  ACCESS:       1388  HIT:        581  MISS:        807  HIT %:    41.8588  MISS %:    58.1412   MPKI: 0.004035
AGUS PREFETCH L1 MISS: 0
LLC WRITEBACK ACCESS:     176217  HIT:     145715  MISS:      30502  HIT %:    82.6907  MISS %:    17.3093   MPKI: 0.15251
LLC LOAD TRANSLATION ACCESS:      47894  HIT:      20448  MISS:      27446  HIT %:    42.6943  MISS %:    57.3057   MPKI: 0.13723
LLC TRANSLATION FROM L1D PREFETCHER ACCESS:       1195  HIT:        483  MISS:        712  HIT %:    40.4184  MISS %:    59.5816   MPKI: 0.00356
LLC PREFETCH  REQUESTED:          0  ISSUED:          0  USEFUL:        286  USELESS:       1207
LLC USEFUL LOAD PREFETCHES:        286 PREFETCH ISSUED TO LOWER LEVEL:        807  ACCURACY: 35.4399
LLC TIMELY PREFETCHES:        286 LATE PREFETCHES: 0 DROPPED PREFETCHES: 0
LLC PREFETCHES SAME FILL-ORIGIN LEVEL: 0 DIFFERENT FILL-ORIGIN LEVEL: 0
LLC AVERAGE MISS LATENCY: 110.995 cycles
LLC RQ	ACCESS:    1539077	FORWARD:          0	MERGED:          0	TO_CACHE:    1539077
LLC WQ	ACCESS:     176217	FORWARD:          0	MERGED:          0	TO_CACHE:     176217
LLC PQ	ACCESS:       1388	FORWARD:          0	MERGED:          0	TO_CACHE:       1388

LLC Dense regions hint to LLC: 0

RAW hits: 7103722
Loads Generated: 66076024
Loads sent to L1D: 58972298
Stores Generated: 18280128
Stores sent to L1D: 18280129
Major fault: 0 Minor fault: 9438
Allocated PAGES: 9438
Completed 
Accuracy : 91.9695
Number of unique groups: 4335118

DRAM Statistics
 CHANNEL 0
 RQ ROW_BUFFER_HIT:     734481  ROW_BUFFER_MISS:     513575
 DBUS_CONGESTED:       1477
 WQ ROW_BUFFER_HIT:      76470  ROW_BUFFER_MISS:      66274  FULL:          0

 AVG_CONGESTED_CYCLE: 3
 All warmup complete: 2
Channel 0 Bank busy for read cycles: 0
Channel 0 Bank busy for write cycles: 0
Channel 0
Rank 0
0banks busy for read cycles: 419007867
0banks busy for write cycles: 62899
1banks busy for read cycles: 70529261
1banks busy for write cycles: 11768456
2banks busy for read cycles: 18269806
2banks busy for write cycles: 2986099
3banks busy for read cycles: 930833
3banks busy for write cycles: 1276824
4banks busy for read cycles: 219805
4banks busy for write cycles: 847671
5banks busy for read cycles: 106892
5banks busy for write cycles: 836456
6banks busy for read cycles: 78476
6banks busy for write cycles: 886712
7banks busy for read cycles: 89880
7banks busy for write cycles: 873531
8banks busy for read cycles: 177662
8banks busy for write cycles: 904253

CPU 0 Branch Prediction Accuracy: 99.6511% MPKI: 0.819515 Average ROB Occupancy at Mispredict: 30.3233
Branch types
NOT_BRANCH: 153025148 76.5126%
BRANCH_DIRECT_JUMP: 1846529 0.923265%
BRANCH_INDIRECT: 24302767 12.1514%
BRANCH_CONDITIONAL: 15487960 7.74398%
BRANCH_DIRECT_CALL: 2098552 1.04928%
BRANCH_INDIRECT_CALL: 567787 0.283894%
BRANCH_RETURN: 2671000 1.3355%
BRANCH_OTHER: 0 0%

DRAM PAGES: 1048576
Allocated PAGES: 9438
