
*** ChampSim Multicore Out-of-Order Simulator ***

Warmup Instructions: 50000000
Simulation Instructions: 200000000
Number of CPUs: 1
LLC sets: 2048
LLC ways: 16
Off-chip DRAM Size: 4096 MB Channels: 1 Width: 64-bit Data Rate: 6400 MT/s
CPU 0 runs traces/spec2k17/srv_16.champsimtrace.xz
.xz
BTB has LRU replacement policy
ITLB has LRU replacement policy
DTLB has LRU replacement policy
STLB has LRU replacement policy
L1I has LRU replacement policy
L1D has LRU replacement policy
Initialize SRRIP state for L2C
Initialize DRRIP state for LLC
Heartbeat CPU 0 instructions: 10000002 cycles: 2839087 heartbeat IPC: 3.52226 cumulative IPC: 3.52226 (Simulation time: 0 hr 0 min 43 sec) 
Heartbeat CPU 0 instructions: 20000002 cycles: 5673903 heartbeat IPC: 3.52757 cumulative IPC: 3.52491 (Simulation time: 0 hr 1 min 23 sec) 
Heartbeat CPU 0 instructions: 30000003 cycles: 8504832 heartbeat IPC: 3.53241 cumulative IPC: 3.52741 (Simulation time: 0 hr 2 min 5 sec) 
*** Reached end of trace for Core: 0 Repeating trace: traces/spec2k17/srv_16.champsimtrace.xz
Heartbeat CPU 0 instructions: 40000001 cycles: 11337273 heartbeat IPC: 3.53052 cumulative IPC: 3.52819 (Simulation time: 0 hr 2 min 45 sec) 
Heartbeat CPU 0 instructions: 50000003 cycles: 14171470 heartbeat IPC: 3.52834 cumulative IPC: 3.52822 (Simulation time: 0 hr 3 min 26 sec) 

Warmup complete CPU 0 instructions: 50000003 cycles: 14171470 (Simulation time: 0 hr 3 min 26 sec) 

Heartbeat CPU 0 instructions: 60000001 cycles: 47729011 heartbeat IPC: 0.297996 cumulative IPC: 0.297996 (Simulation time: 0 hr 4 min 25 sec) 
*** Reached end of trace for Core: 0 Repeating trace: traces/spec2k17/srv_16.champsimtrace.xz
Heartbeat CPU 0 instructions: 70000001 cycles: 81379381 heartbeat IPC: 0.297174 cumulative IPC: 0.297584 (Simulation time: 0 hr 5 min 20 sec) 
Heartbeat CPU 0 instructions: 80000000 cycles: 115022371 heartbeat IPC: 0.297239 cumulative IPC: 0.297469 (Simulation time: 0 hr 6 min 22 sec) 
Heartbeat CPU 0 instructions: 90000000 cycles: 148492752 heartbeat IPC: 0.298772 cumulative IPC: 0.297793 (Simulation time: 0 hr 7 min 24 sec) 
*** Reached end of trace for Core: 0 Repeating trace: traces/spec2k17/srv_16.champsimtrace.xz
Heartbeat CPU 0 instructions: 100000003 cycles: 181988278 heartbeat IPC: 0.298547 cumulative IPC: 0.297944 (Simulation time: 0 hr 8 min 27 sec) 
Heartbeat CPU 0 instructions: 110000000 cycles: 215476821 heartbeat IPC: 0.298609 cumulative IPC: 0.298055 (Simulation time: 0 hr 9 min 27 sec) 
Heartbeat CPU 0 instructions: 120000001 cycles: 248809195 heartbeat IPC: 0.300009 cumulative IPC: 0.298332 (Simulation time: 0 hr 10 min 28 sec) 
*** Reached end of trace for Core: 0 Repeating trace: traces/spec2k17/srv_16.champsimtrace.xz
Heartbeat CPU 0 instructions: 130000003 cycles: 282012800 heartbeat IPC: 0.301172 cumulative IPC: 0.298684 (Simulation time: 0 hr 11 min 34 sec) 
Heartbeat CPU 0 instructions: 140000001 cycles: 315103691 heartbeat IPC: 0.302198 cumulative IPC: 0.299071 (Simulation time: 0 hr 12 min 38 sec) 
Heartbeat CPU 0 instructions: 150000000 cycles: 348060978 heartbeat IPC: 0.303423 cumulative IPC: 0.2995 (Simulation time: 0 hr 13 min 40 sec) 
*** Reached end of trace for Core: 0 Repeating trace: traces/spec2k17/srv_16.champsimtrace.xz
Heartbeat CPU 0 instructions: 160000001 cycles: 380982418 heartbeat IPC: 0.303753 cumulative IPC: 0.299882 (Simulation time: 0 hr 14 min 42 sec) 
Heartbeat CPU 0 instructions: 170000002 cycles: 414028462 heartbeat IPC: 0.302608 cumulative IPC: 0.300107 (Simulation time: 0 hr 15 min 44 sec) 
Heartbeat CPU 0 instructions: 180000002 cycles: 446975970 heartbeat IPC: 0.303513 cumulative IPC: 0.300367 (Simulation time: 0 hr 16 min 43 sec) 
*** Reached end of trace for Core: 0 Repeating trace: traces/spec2k17/srv_16.champsimtrace.xz
Heartbeat CPU 0 instructions: 190000003 cycles: 479851515 heartbeat IPC: 0.304177 cumulative IPC: 0.300636 (Simulation time: 0 hr 17 min 43 sec) 
Heartbeat CPU 0 instructions: 200000002 cycles: 512895791 heartbeat IPC: 0.302624 cumulative IPC: 0.300767 (Simulation time: 0 hr 18 min 45 sec) 
Heartbeat CPU 0 instructions: 210000001 cycles: 545880451 heartbeat IPC: 0.303171 cumulative IPC: 0.300916 (Simulation time: 0 hr 19 min 46 sec) 
*** Reached end of trace for Core: 0 Repeating trace: traces/spec2k17/srv_16.champsimtrace.xz
Heartbeat CPU 0 instructions: 220000000 cycles: 578725653 heartbeat IPC: 0.304458 cumulative IPC: 0.301123 (Simulation time: 0 hr 20 min 47 sec) 
Heartbeat CPU 0 instructions: 230000001 cycles: 611758574 heartbeat IPC: 0.302728 cumulative IPC: 0.301211 (Simulation time: 0 hr 21 min 47 sec) 
Heartbeat CPU 0 instructions: 240000000 cycles: 644727060 heartbeat IPC: 0.30332 cumulative IPC: 0.301322 (Simulation time: 0 hr 22 min 46 sec) 
Heartbeat CPU 0 instructions: 250000003 cycles: 677533860 heartbeat IPC: 0.304815 cumulative IPC: 0.301494 (Simulation time: 0 hr 23 min 45 sec) 
Finished CPU 0 instructions: 200000000 cycles: 663362390 cumulative IPC: 0.301494 (Simulation time: 0 hr 23 min 45 sec) 

ChampSim completed all CPUs

Region of Interest Statistics

CPU 0 cumulative IPC: 0.301494 instructions: 200000000 cycles: 663362390
ITLB TOTAL     ACCESS:   35377694  HIT:   32951006  MISS:    2426688  HIT %:    93.1406  MISS %:    6.85937   MPKI: 12.1334
ITLB LOAD TRANSLATION ACCESS:   35377694  HIT:   32951006  MISS:    2426688  HIT %:    93.1406  MISS %:    6.85937   MPKI: 12.1334
ITLB PREFETCH  REQUESTED:          0  ISSUED:          0  USEFUL:          0  USELESS:          0
ITLB USEFUL LOAD PREFETCHES:          0 PREFETCH ISSUED TO LOWER LEVEL:          0  ACCURACY: -nan
ITLB TIMELY PREFETCHES:          0 LATE PREFETCHES: 0 DROPPED PREFETCHES: 0
ITLB PREFETCHES SAME FILL-ORIGIN LEVEL: 0 DIFFERENT FILL-ORIGIN LEVEL: 0
ITLB AVERAGE MISS LATENCY: 9.01516 cycles
ITLB RQ	ACCESS:   41960748	FORWARD:          0	MERGED:    6018038	TO_CACHE:   35942710

DTLB TOTAL     ACCESS:   47484852  HIT:   45512038  MISS:    1972814  HIT %:    95.8454  MISS %:    4.15462   MPKI: 9.86407
DTLB LOAD TRANSLATION ACCESS:   47484852  HIT:   45512038  MISS:    1972814  HIT %:    95.8454  MISS %:    4.15462   MPKI: 9.86407
DTLB PREFETCH  REQUESTED:          0  ISSUED:          0  USEFUL:          0  USELESS:          0
DTLB USEFUL LOAD PREFETCHES:          0 PREFETCH ISSUED TO LOWER LEVEL:          0  ACCURACY: -nan
DTLB TIMELY PREFETCHES:          0 LATE PREFETCHES: 0 DROPPED PREFETCHES: 0
DTLB PREFETCHES SAME FILL-ORIGIN LEVEL: 0 DIFFERENT FILL-ORIGIN LEVEL: 0
DTLB AVERAGE MISS LATENCY: 8.56131 cycles
DTLB RQ	ACCESS:   62686627	FORWARD:          0	MERGED:   15153002	TO_CACHE:   47533625

STLB TOTAL     ACCESS:   14837109  HIT:   14835793  MISS:       1316  HIT %:    99.9911  MISS %: 0.00886965   MPKI: 0.00658
STLB LOAD TRANSLATION ACCESS:    4399502  HIT:    4398233  MISS:       1269  HIT %:    99.9712  MISS %:  0.0288442   MPKI: 0.006345
STLB TRANSLATION FROM L1D PREFETCHER ACCESS:   10437607  HIT:   10437560  MISS:         47  HIT %:    99.9995  MISS %: 0.000450295   MPKI: 0.000235
STLB PREFETCH  REQUESTED:          0  ISSUED:          0  USEFUL:         32  USELESS:         15
STLB USEFUL LOAD PREFETCHES:         32 PREFETCH ISSUED TO LOWER LEVEL:          0  ACCURACY: inf
STLB TIMELY PREFETCHES:         32 LATE PREFETCHES: 2 DROPPED PREFETCHES: 3665
STLB PREFETCHES SAME FILL-ORIGIN LEVEL: 0 DIFFERENT FILL-ORIGIN LEVEL: 0
STLB AVERAGE MISS LATENCY: 27.7956 cycles
STLB RQ	ACCESS:   17379933	FORWARD:          0	MERGED:    2539155	TO_CACHE:   14840778

STLB Hit, L1D data hit: 0
STLB Hit, L2C data hit: 0
STLB Hit, LLC data hit: 0
STLB Hit, LLC data miss: 0
STLB STLB hints to L2: 0
L1D TOTAL     ACCESS:   73300239  HIT:   68884254  MISS:    4415985  HIT %:    93.9755  MISS %:    6.02452   MPKI: 22.0799
L1D LOAD      ACCESS:   34692181  HIT:   32293444  MISS:    2398737  HIT %:    93.0857  MISS %:    6.91434   MPKI: 11.9937
L1D RFO       ACCESS:   26231438  HIT:   25078010  MISS:    1153428  HIT %:    95.6029  MISS %:    4.39712   MPKI: 5.76714
L1D PREFETCH  ACCESS:   12376620  HIT:   11512800  MISS:     863820  HIT %:    93.0206  MISS %:    6.97945   MPKI: 4.3191
AGUS PREFETCH L1 MISS: 0
L1D PREFETCH  REQUESTED:   26957638  ISSUED:   26957638  USEFUL:     854375  USELESS:       9442
L1D USEFUL LOAD PREFETCHES:     854375 PREFETCH ISSUED TO LOWER LEVEL:    1156404  ACCURACY: 73.8821
L1D TIMELY PREFETCHES:     854375 LATE PREFETCHES: 288093 DROPPED PREFETCHES: 3746
L1D PREFETCHES SAME FILL-ORIGIN LEVEL: 1156404 DIFFERENT FILL-ORIGIN LEVEL: 0
L1D AVERAGE MISS LATENCY: 3.04556e+07 cycles
L1D RQ	ACCESS:   47213245	FORWARD:          0	MERGED:   12069726	TO_CACHE:   34794910
L1D WQ	ACCESS:   28035950	FORWARD:     373889	MERGED:     144233	TO_CACHE:   27891717
L1D PQ	ACCESS:   13977207	FORWARD:          0	MERGED:     971496	TO_CACHE:   12980431

L1D UNIQUE REGIONS ACCESSED: 0
L1D REGIONS CONFLICTS: 0
L1D Cross Page Prefetch Requests: 10377339
L1D Same Page Prefetch Requests: 3643014
L1D ROI Sum of L1D PQ occupancy: 179493508
L1D PREFETCHES PUSHED FROM L2C: 0
L1I TOTAL     ACCESS:   40170696  HIT:   27969085  MISS:   12201611  HIT %:    69.6256  MISS %:    30.3744   MPKI: 61.0081
L1I LOAD      ACCESS:   40170696  HIT:   27969085  MISS:   12201611  HIT %:    69.6256  MISS %:    30.3744   MPKI: 61.0081
L1I PREFETCH  REQUESTED:          0  ISSUED:          0  USEFUL:          0  USELESS:          0
L1I USEFUL LOAD PREFETCHES:          0 PREFETCH ISSUED TO LOWER LEVEL:          0  ACCURACY: -nan
L1I TIMELY PREFETCHES:          0 LATE PREFETCHES: 0 DROPPED PREFETCHES: 0
L1I PREFETCHES SAME FILL-ORIGIN LEVEL: 0 DIFFERENT FILL-ORIGIN LEVEL: 0
L1I AVERAGE MISS LATENCY: 15.465 cycles
L1I RQ	ACCESS:   58892018	FORWARD:          0	MERGED:   16931270	TO_CACHE:   41960748

BTB TOTAL     ACCESS:   30243090  HIT:   16698409  MISS:   13544681  HIT %:     55.214  MISS %:     44.786   MPKI: 67.7234
BTB BRANCH_DIRECT_JUMP	ACCESS:    1963388  HIT:    1087332  MISS:     876056
BTB BRANCH_INDIRECT	ACCESS:   12759698  HIT:    7591616  MISS:    5168082
BTB BRANCH_CONDITIONAL	ACCESS:    5682628  HIT:    4287581  MISS:    1395047
BTB BRANCH_DIRECT_CALL	ACCESS:    4145072  HIT:    1929113  MISS:    2215959
BTB BRANCH_INDIRECT_CALL	ACCESS:     773633  HIT:     372148  MISS:     401485
BTB BRANCH_RETURN	ACCESS:    4918671  HIT:    1430619  MISS:    3488052
BTB BRANCH_OTHER ACCESS:          0  HIT:          0  MISS:          0

L2C TOTAL     ACCESS:   18907134  HIT:   18114147  MISS:     792987  HIT %:    95.8059  MISS %:    4.19412   MPKI: 3.96494
L2C LOAD      ACCESS:   14311686  HIT:   13587241  MISS:     724445  HIT %:    94.9381  MISS %:    5.06191   MPKI: 3.62222
L2C DATA LOAD MPKI: 0.79503
L2C INSTRUCTION LOAD MPKI: 2.8272
L2C RFO       ACCESS:    1148937  HIT:    1135339  MISS:      13598  HIT %:    98.8165  MISS %:    1.18353   MPKI: 0.06799
L2C PREFETCH  ACCESS:    1156400  HIT:    1112622  MISS:      43778  HIT %:    96.2143  MISS %:    3.78571   MPKI: 0.21889
AGUS PREFETCH L1 MISS: 0
L2C DATA PREFETCH MPKI: 0.21889
L2C INSTRUCTION PREFETCH MPKI: 0
L2C WRITEBACK ACCESS:    2283888  HIT:    2273890  MISS:       9998  HIT %:    99.5622  MISS %:   0.437762   MPKI: 0.04999
L2C LOAD TRANSLATION ACCESS:       1267  HIT:        894  MISS:        373  HIT %:    70.5604  MISS %:    29.4396   MPKI: 0.001865
L2C TRANSLATION FROM L1D PREFETCHER ACCESS:       4956  HIT:       4161  MISS:        795  HIT %:    83.9588  MISS %:    16.0412   MPKI: 0.003975
L2C PREFETCH  REQUESTED:          0  ISSUED:          0  USEFUL:       1428  USELESS:      43114
L2C USEFUL LOAD PREFETCHES:       1428 PREFETCH ISSUED TO LOWER LEVEL:      43778  ACCURACY: 3.26191
L2C TIMELY PREFETCHES:       1428 LATE PREFETCHES: 0 DROPPED PREFETCHES: 0
L2C PREFETCHES SAME FILL-ORIGIN LEVEL: 0 DIFFERENT FILL-ORIGIN LEVEL: 0
L2C AVERAGE MISS LATENCY: 29.8589 cycles
L2C RQ	ACCESS:   15467412	FORWARD:          0	MERGED:          0	TO_CACHE:   15466844
L2C WQ	ACCESS:    2283888	FORWARD:        572	MERGED:          0	TO_CACHE:    2283888
L2C PQ	ACCESS:    1156404	FORWARD:          0	MERGED:          0	TO_CACHE:    1156400

L2C Instructions Evicting Data 114572
L2C Translations Evicting Data 1071
L2C Data Evicting Data 109745
L2C Instructions Evicting Instructions 450780
L2C Translations Evicting Instructions 96
L2C Data Evicting Instructions 105568
L2C Instructions Evicting Translations 87
L2C Translations Evicting Translations 1
L2C Data Evicting Translations 1066
L2C Dense regions hint from L2: 0
PSCL5 TOTAL     ACCESS:       4979  HIT:       4979  MISS:          0  HIT %:        100  MISS %:          0   MPKI: 0
PSCL5 LOAD TRANSLATION ACCESS:       1267  HIT:       1267  MISS:          0  HIT %:        100  MISS %:          0   MPKI: 0
PSCL5 TRANSLATION FROM L1D PREFETCHER ACCESS:       3712  HIT:       3712  MISS:          0  HIT %:        100  MISS %:          0   MPKI: 0
PSCL5 PREFETCH  REQUESTED:          0  ISSUED:          0  USEFUL:          0  USELESS:          0
PSCL5 USEFUL LOAD PREFETCHES:          0 PREFETCH ISSUED TO LOWER LEVEL:          0  ACCURACY: -nan
PSCL5 TIMELY PREFETCHES:          0 LATE PREFETCHES: 0 DROPPED PREFETCHES: 0
PSCL5 PREFETCHES SAME FILL-ORIGIN LEVEL: 0 DIFFERENT FILL-ORIGIN LEVEL: 0

PSCL4 TOTAL     ACCESS:       4960  HIT:       4960  MISS:          0  HIT %:        100  MISS %:          0   MPKI: 0
PSCL4 LOAD TRANSLATION ACCESS:       1267  HIT:       1267  MISS:          0  HIT %:        100  MISS %:          0   MPKI: 0
PSCL4 TRANSLATION FROM L1D PREFETCHER ACCESS:       3693  HIT:       3693  MISS:          0  HIT %:        100  MISS %:          0   MPKI: 0
PSCL4 PREFETCH  REQUESTED:          0  ISSUED:          0  USEFUL:          0  USELESS:          0
PSCL4 USEFUL LOAD PREFETCHES:          0 PREFETCH ISSUED TO LOWER LEVEL:          0  ACCURACY: -nan
PSCL4 TIMELY PREFETCHES:          0 LATE PREFETCHES: 0 DROPPED PREFETCHES: 0
PSCL4 PREFETCHES SAME FILL-ORIGIN LEVEL: 0 DIFFERENT FILL-ORIGIN LEVEL: 0

PSCL3 TOTAL     ACCESS:       4919  HIT:       4919  MISS:          0  HIT %:        100  MISS %:          0   MPKI: 0
PSCL3 LOAD TRANSLATION ACCESS:       1267  HIT:       1267  MISS:          0  HIT %:        100  MISS %:          0   MPKI: 0
PSCL3 TRANSLATION FROM L1D PREFETCHER ACCESS:       3652  HIT:       3652  MISS:          0  HIT %:        100  MISS %:          0   MPKI: 0
PSCL3 PREFETCH  REQUESTED:          0  ISSUED:          0  USEFUL:          0  USELESS:          0
PSCL3 USEFUL LOAD PREFETCHES:          0 PREFETCH ISSUED TO LOWER LEVEL:          0  ACCURACY: -nan
PSCL3 TIMELY PREFETCHES:          0 LATE PREFETCHES: 0 DROPPED PREFETCHES: 0
PSCL3 PREFETCHES SAME FILL-ORIGIN LEVEL: 0 DIFFERENT FILL-ORIGIN LEVEL: 0

PSCL2 TOTAL     ACCESS:       3515  HIT:       3515  MISS:          0  HIT %:        100  MISS %:          0   MPKI: 0
PSCL2 LOAD TRANSLATION ACCESS:       1267  HIT:       1267  MISS:          0  HIT %:        100  MISS %:          0   MPKI: 0
PSCL2 TRANSLATION FROM L1D PREFETCHER ACCESS:       2248  HIT:       2248  MISS:          0  HIT %:        100  MISS %:          0   MPKI: 0
PSCL2 PREFETCH  REQUESTED:          0  ISSUED:          0  USEFUL:          0  USELESS:          0
PSCL2 USEFUL LOAD PREFETCHES:          0 PREFETCH ISSUED TO LOWER LEVEL:          0  ACCURACY: -nan
PSCL2 TIMELY PREFETCHES:          0 LATE PREFETCHES: 0 DROPPED PREFETCHES: 0
PSCL2 PREFETCHES SAME FILL-ORIGIN LEVEL: 0 DIFFERENT FILL-ORIGIN LEVEL: 0

LLC TOTAL     ACCESS:     802252  HIT:     801128  MISS:       1124  HIT %:    99.8599  MISS %:   0.140106   MPKI: 0.00562
LLC LOAD      ACCESS:     724445  HIT:     723520  MISS:        925  HIT %:    99.8723  MISS %:   0.127684   MPKI: 0.004625
LLC RFO       ACCESS:      13598  HIT:      13598  MISS:          0  HIT %:        100  MISS %:          0   MPKI: 0
LLC PREFETCH  ACCESS:      43778  HIT:      43667  MISS:        111  HIT %:    99.7464  MISS %:   0.253552   MPKI: 0.000555
AGUS PREFETCH L1 MISS: 0
LLC WRITEBACK ACCESS:      19263  HIT:      19263  MISS:          0  HIT %:        100  MISS %:          0   MPKI: 0
LLC LOAD TRANSLATION ACCESS:        373  HIT:        373  MISS:          0  HIT %:        100  MISS %:          0   MPKI: 0
LLC TRANSLATION FROM L1D PREFETCHER ACCESS:        795  HIT:        707  MISS:         88  HIT %:    88.9308  MISS %:    11.0692   MPKI: 0.00044
LLC PREFETCH  REQUESTED:          0  ISSUED:          0  USEFUL:         40  USELESS:          3
LLC USEFUL LOAD PREFETCHES:         40 PREFETCH ISSUED TO LOWER LEVEL:        111  ACCURACY: 36.036
LLC TIMELY PREFETCHES:         40 LATE PREFETCHES: 0 DROPPED PREFETCHES: 0
LLC PREFETCHES SAME FILL-ORIGIN LEVEL: 0 DIFFERENT FILL-ORIGIN LEVEL: 0
LLC AVERAGE MISS LATENCY: 167.285 cycles
LLC RQ	ACCESS:     739211	FORWARD:          0	MERGED:          0	TO_CACHE:     739211
LLC WQ	ACCESS:      19263	FORWARD:          0	MERGED:          0	TO_CACHE:      19263
LLC PQ	ACCESS:      43778	FORWARD:          0	MERGED:          0	TO_CACHE:      43778

LLC Dense regions hint to LLC: 0

RAW hits: 1512105
Loads Generated: 48725350
Loads sent to L1D: 47213245
Stores Generated: 28035942
Stores sent to L1D: 28035950
Major fault: 0 Minor fault: 1271
Allocated PAGES: 1271
Completed 
Accuracy : 96.3592
Number of unique groups: 1021099

DRAM Statistics
 CHANNEL 0
 RQ ROW_BUFFER_HIT:         40  ROW_BUFFER_MISS:       1084
 DBUS_CONGESTED:          0
 WQ ROW_BUFFER_HIT:          0  ROW_BUFFER_MISS:          0  FULL:          0

 AVG_CONGESTED_CYCLE: -
 All warmup complete: 2
Channel 0 Bank busy for read cycles: 0
Channel 0 Bank busy for write cycles: 0
Channel 0
Rank 0
0banks busy for read cycles: 663206224
0banks busy for write cycles: 0
1banks busy for read cycles: 148178
1banks busy for write cycles: 0
2banks busy for read cycles: 7545
2banks busy for write cycles: 0
3banks busy for read cycles: 444
3banks busy for write cycles: 0
4banks busy for read cycles: 0
4banks busy for write cycles: 0
5banks busy for read cycles: 0
5banks busy for write cycles: 0
6banks busy for read cycles: 0
6banks busy for write cycles: 0
7banks busy for read cycles: 0
7banks busy for write cycles: 0
8banks busy for read cycles: 0
8banks busy for write cycles: 0

CPU 0 Branch Prediction Accuracy: 99.9106% MPKI: 0.158745 Average ROB Occupancy at Mispredict: 30.7459
Branch types
NOT_BRANCH: 164493960 82.247%
BRANCH_DIRECT_JUMP: 1963388 0.981694%
BRANCH_INDIRECT: 12759698 6.37985%
BRANCH_CONDITIONAL: 10945421 5.47271%
BRANCH_DIRECT_CALL: 4145072 2.07254%
BRANCH_INDIRECT_CALL: 773633 0.386817%
BRANCH_RETURN: 4918671 2.45934%
BRANCH_OTHER: 0 0%

DRAM PAGES: 1048576
Allocated PAGES: 1271
