
*** ChampSim Multicore Out-of-Order Simulator ***

Warmup Instructions: 50000000
Simulation Instructions: 200000000
Number of CPUs: 1
LLC sets: 2048
LLC ways: 16
Off-chip DRAM Size: 4096 MB Channels: 1 Width: 64-bit Data Rate: 6400 MT/s
CPU 0 runs traces/spec2k17/srv_39.champsimtrace.xz
.xz
BTB has LRU replacement policy
ITLB has LRU replacement policy
DTLB has LRU replacement policy
STLB has LRU replacement policy
L1I has LRU replacement policy
L1D has LRU replacement policy
Initialize SRRIP state for L2C
Initialize DRRIP state for LLC
Heartbeat CPU 0 instructions: 10000001 cycles: 2942229 heartbeat IPC: 3.39878 cumulative IPC: 3.39878 (Simulation time: 0 hr 0 min 57 sec) 
Heartbeat CPU 0 instructions: 20000002 cycles: 5876054 heartbeat IPC: 3.40852 cumulative IPC: 3.40365 (Simulation time: 0 hr 1 min 56 sec) 
Heartbeat CPU 0 instructions: 30000003 cycles: 8817325 heartbeat IPC: 3.39989 cumulative IPC: 3.40239 (Simulation time: 0 hr 3 min 6 sec) 
*** Reached end of trace for Core: 0 Repeating trace: traces/spec2k17/srv_39.champsimtrace.xz
Heartbeat CPU 0 instructions: 40000000 cycles: 11757034 heartbeat IPC: 3.4017 cumulative IPC: 3.40222 (Simulation time: 0 hr 4 min 24 sec) 
Heartbeat CPU 0 instructions: 50000000 cycles: 14691087 heartbeat IPC: 3.40825 cumulative IPC: 3.40342 (Simulation time: 0 hr 5 min 46 sec) 

Warmup complete CPU 0 instructions: 50000004 cycles: 14691088 (Simulation time: 0 hr 5 min 46 sec) 

Heartbeat CPU 0 instructions: 60000003 cycles: 34000327 heartbeat IPC: 0.517887 cumulative IPC: 0.517887 (Simulation time: 0 hr 7 min 29 sec) 
*** Reached end of trace for Core: 0 Repeating trace: traces/spec2k17/srv_39.champsimtrace.xz
Heartbeat CPU 0 instructions: 70000000 cycles: 53249447 heartbeat IPC: 0.519504 cumulative IPC: 0.518694 (Simulation time: 0 hr 9 min 17 sec) 
Heartbeat CPU 0 instructions: 80000001 cycles: 72655568 heartbeat IPC: 0.515301 cumulative IPC: 0.517558 (Simulation time: 0 hr 11 min 22 sec) 
Heartbeat CPU 0 instructions: 90000000 cycles: 91777534 heartbeat IPC: 0.522959 cumulative IPC: 0.518898 (Simulation time: 0 hr 13 min 43 sec) 
*** Reached end of trace for Core: 0 Repeating trace: traces/spec2k17/srv_39.champsimtrace.xz
Heartbeat CPU 0 instructions: 100000000 cycles: 110995613 heartbeat IPC: 0.520343 cumulative IPC: 0.519186 (Simulation time: 0 hr 16 min 13 sec) 
Heartbeat CPU 0 instructions: 110000000 cycles: 130308174 heartbeat IPC: 0.517798 cumulative IPC: 0.518954 (Simulation time: 0 hr 19 min 0 sec) 
Heartbeat CPU 0 instructions: 120000001 cycles: 149566572 heartbeat IPC: 0.519254 cumulative IPC: 0.518997 (Simulation time: 0 hr 21 min 52 sec) 
*** Reached end of trace for Core: 0 Repeating trace: traces/spec2k17/srv_39.champsimtrace.xz
Heartbeat CPU 0 instructions: 130000000 cycles: 168685458 heartbeat IPC: 0.523043 cumulative IPC: 0.519499 (Simulation time: 0 hr 25 min 0 sec) 
Heartbeat CPU 0 instructions: 140000000 cycles: 188056722 heartbeat IPC: 0.516229 cumulative IPC: 0.519134 (Simulation time: 0 hr 28 min 35 sec) 
Heartbeat CPU 0 instructions: 150000003 cycles: 207277032 heartbeat IPC: 0.520283 cumulative IPC: 0.519249 (Simulation time: 0 hr 32 min 45 sec) 
Heartbeat CPU 0 instructions: 160000000 cycles: 226395105 heartbeat IPC: 0.523065 cumulative IPC: 0.519593 (Simulation time: 0 hr 37 min 21 sec) 
*** Reached end of trace for Core: 0 Repeating trace: traces/spec2k17/srv_39.champsimtrace.xz
Heartbeat CPU 0 instructions: 170000001 cycles: 245715717 heartbeat IPC: 0.517582 cumulative IPC: 0.519425 (Simulation time: 0 hr 41 min 32 sec) 
Heartbeat CPU 0 instructions: 180000000 cycles: 264957142 heartbeat IPC: 0.519712 cumulative IPC: 0.519447 (Simulation time: 0 hr 45 min 0 sec) 
Heartbeat CPU 0 instructions: 190000000 cycles: 284181014 heartbeat IPC: 0.520187 cumulative IPC: 0.5195 (Simulation time: 0 hr 48 min 4 sec) 
*** Reached end of trace for Core: 0 Repeating trace: traces/spec2k17/srv_39.champsimtrace.xz
Heartbeat CPU 0 instructions: 200000001 cycles: 303350247 heartbeat IPC: 0.521669 cumulative IPC: 0.519644 (Simulation time: 0 hr 50 min 3 sec) 
Heartbeat CPU 0 instructions: 210000000 cycles: 322673742 heartbeat IPC: 0.517505 cumulative IPC: 0.51951 (Simulation time: 0 hr 51 min 49 sec) 
Heartbeat CPU 0 instructions: 220000000 cycles: 341872627 heartbeat IPC: 0.520864 cumulative IPC: 0.519589 (Simulation time: 0 hr 53 min 54 sec) 
*** Reached end of trace for Core: 0 Repeating trace: traces/spec2k17/srv_39.champsimtrace.xz
Heartbeat CPU 0 instructions: 230000000 cycles: 361071840 heartbeat IPC: 0.520855 cumulative IPC: 0.519659 (Simulation time: 0 hr 55 min 21 sec) 
Heartbeat CPU 0 instructions: 240000001 cycles: 380353788 heartbeat IPC: 0.51862 cumulative IPC: 0.519605 (Simulation time: 0 hr 56 min 35 sec) 
Heartbeat CPU 0 instructions: 250000000 cycles: 399539008 heartbeat IPC: 0.521235 cumulative IPC: 0.519686 (Simulation time: 0 hr 57 min 42 sec) 
Finished CPU 0 instructions: 200000000 cycles: 384847929 cumulative IPC: 0.519686 (Simulation time: 0 hr 57 min 42 sec) 

ChampSim completed all CPUs

Region of Interest Statistics

CPU 0 cumulative IPC: 0.519686 instructions: 200000000 cycles: 384847929
ITLB TOTAL     ACCESS:   33763194  HIT:   32222888  MISS:    1540306  HIT %:    95.4379  MISS %:    4.56209   MPKI: 7.70153
ITLB LOAD TRANSLATION ACCESS:   33763194  HIT:   32222888  MISS:    1540306  HIT %:    95.4379  MISS %:    4.56209   MPKI: 7.70153
ITLB PREFETCH  REQUESTED:          0  ISSUED:          0  USEFUL:          0  USELESS:          0
ITLB USEFUL LOAD PREFETCHES:          0 PREFETCH ISSUED TO LOWER LEVEL:          0  ACCURACY: -nan
ITLB TIMELY PREFETCHES:          0 LATE PREFETCHES: 0 DROPPED PREFETCHES: 0
ITLB PREFETCHES SAME FILL-ORIGIN LEVEL: 0 DIFFERENT FILL-ORIGIN LEVEL: 0
ITLB AVERAGE MISS LATENCY: 9.22027 cycles
ITLB RQ	ACCESS:   40661546	FORWARD:          0	MERGED:    6403444	TO_CACHE:   34258102

DTLB TOTAL     ACCESS:   40009550  HIT:   38492608  MISS:    1516942  HIT %:    96.2086  MISS %:    3.79145   MPKI: 7.58471
DTLB LOAD TRANSLATION ACCESS:   40009550  HIT:   38492608  MISS:    1516942  HIT %:    96.2086  MISS %:    3.79145   MPKI: 7.58471
DTLB PREFETCH  REQUESTED:          0  ISSUED:          0  USEFUL:          0  USELESS:          0
DTLB USEFUL LOAD PREFETCHES:          0 PREFETCH ISSUED TO LOWER LEVEL:          0  ACCURACY: -nan
DTLB TIMELY PREFETCHES:          0 LATE PREFETCHES: 0 DROPPED PREFETCHES: 0
DTLB PREFETCHES SAME FILL-ORIGIN LEVEL: 0 DIFFERENT FILL-ORIGIN LEVEL: 0
DTLB AVERAGE MISS LATENCY: 14.0599 cycles
DTLB RQ	ACCESS:   61167233	FORWARD:          0	MERGED:   20764579	TO_CACHE:   40402654

STLB TOTAL     ACCESS:    4871574  HIT:    4793087  MISS:      78487  HIT %:    98.3889  MISS %:    1.61112   MPKI: 0.392435
STLB LOAD TRANSLATION ACCESS:    3057248  HIT:    2981091  MISS:      76157  HIT %:     97.509  MISS %:    2.49103   MPKI: 0.380785
STLB TRANSLATION FROM L1D PREFETCHER ACCESS:    1814326  HIT:    1811996  MISS:       2330  HIT %:    99.8716  MISS %:   0.128422   MPKI: 0.01165
STLB PREFETCH  REQUESTED:          0  ISSUED:          0  USEFUL:       2150  USELESS:        179
STLB USEFUL LOAD PREFETCHES:       2150 PREFETCH ISSUED TO LOWER LEVEL:          0  ACCURACY: inf
STLB TIMELY PREFETCHES:       2150 LATE PREFETCHES: 547 DROPPED PREFETCHES: 3767
STLB PREFETCHES SAME FILL-ORIGIN LEVEL: 0 DIFFERENT FILL-ORIGIN LEVEL: 0
STLB AVERAGE MISS LATENCY: 6561.5 cycles
STLB RQ	ACCESS:    6012623	FORWARD:          0	MERGED:    1136728	TO_CACHE:    4875895

STLB Hit, L1D data hit: 0
STLB Hit, L2C data hit: 0
STLB Hit, LLC data hit: 0
STLB Hit, LLC data miss: 0
STLB STLB hints to L2: 0
L1D TOTAL     ACCESS:   51380830  HIT:   44607803  MISS:    6773027  HIT %:     86.818  MISS %:     13.182   MPKI: 33.8651
L1D LOAD      ACCESS:   26796764  HIT:   23907607  MISS:    2889157  HIT %:    89.2183  MISS %:    10.7817   MPKI: 14.4458
L1D RFO       ACCESS:   22324600  HIT:   18630466  MISS:    3694134  HIT %:    83.4526  MISS %:    16.5474   MPKI: 18.4707
L1D PREFETCH  ACCESS:    2259466  HIT:    2069730  MISS:     189736  HIT %:    91.6026  MISS %:    8.39738   MPKI: 0.94868
AGUS PREFETCH L1 MISS: 0
L1D PREFETCH  REQUESTED:    6063891  ISSUED:    6063727  USEFUL:     170077  USELESS:      19659
L1D USEFUL LOAD PREFETCHES:     170077 PREFETCH ISSUED TO LOWER LEVEL:     498904  ACCURACY: 34.0901
L1D TIMELY PREFETCHES:     170077 LATE PREFETCHES: 309141 DROPPED PREFETCHES: 4631
L1D PREFETCHES SAME FILL-ORIGIN LEVEL: 498904 DIFFERENT FILL-ORIGIN LEVEL: 0
L1D AVERAGE MISS LATENCY: 9.51054e+06 cycles
L1D RQ	ACCESS:   45344558	FORWARD:          0	MERGED:   17872182	TO_CACHE:   27187471
L1D WQ	ACCESS:   34178909	FORWARD:     301800	MERGED:     199147	TO_CACHE:   33979762
L1D PQ	ACCESS:    3108352	FORWARD:          0	MERGED:     136082	TO_CACHE:    2955375

L1D UNIQUE REGIONS ACCESSED: 0
L1D REGIONS CONFLICTS: 0
L1D Cross Page Prefetch Requests: 1522164
L1D Same Page Prefetch Requests: 2087338
L1D ROI Sum of L1D PQ occupancy: 44524616
L1D PREFETCHES PUSHED FROM L2C: 0
L1I TOTAL     ACCESS:   38003233  HIT:   28898223  MISS:    9105010  HIT %:    76.0415  MISS %:    23.9585   MPKI: 45.5251
L1I LOAD      ACCESS:   38003233  HIT:   28898223  MISS:    9105010  HIT %:    76.0415  MISS %:    23.9585   MPKI: 45.5251
L1I PREFETCH  REQUESTED:          0  ISSUED:          0  USEFUL:          0  USELESS:          0
L1I USEFUL LOAD PREFETCHES:          0 PREFETCH ISSUED TO LOWER LEVEL:          0  ACCURACY: -nan
L1I TIMELY PREFETCHES:          0 LATE PREFETCHES: 0 DROPPED PREFETCHES: 0
L1I PREFETCHES SAME FILL-ORIGIN LEVEL: 0 DIFFERENT FILL-ORIGIN LEVEL: 0
L1I AVERAGE MISS LATENCY: 16.5195 cycles
L1I RQ	ACCESS:   58960471	FORWARD:          0	MERGED:   18298925	TO_CACHE:   40661546

BTB TOTAL     ACCESS:   25656443  HIT:   24104581  MISS:    1551862  HIT %:    93.9514  MISS %:    6.04862   MPKI: 7.75931
BTB BRANCH_DIRECT_JUMP	ACCESS:    1660636  HIT:    1651091  MISS:       9545
BTB BRANCH_INDIRECT	ACCESS:   10006678  HIT:    9485916  MISS:     520762
BTB BRANCH_CONDITIONAL	ACCESS:    7142248  HIT:    7128880  MISS:      13368
BTB BRANCH_DIRECT_CALL	ACCESS:    2826795  HIT:    2793470  MISS:      33325
BTB BRANCH_INDIRECT_CALL	ACCESS:     596648  HIT:     485314  MISS:     111334
BTB BRANCH_RETURN	ACCESS:    3423438  HIT:    2559910  MISS:     863528
BTB BRANCH_OTHER ACCESS:          0  HIT:          0  MISS:          0

L2C TOTAL     ACCESS:   20311917  HIT:   13729809  MISS:    6582108  HIT %:    67.5948  MISS %:    32.4052   MPKI: 32.9105
L2C LOAD      ACCESS:   11684889  HIT:    9263439  MISS:    2421450  HIT %:    79.2771  MISS %:    20.7229   MPKI: 12.1073
L2C DATA LOAD MPKI: 9.29045
L2C INSTRUCTION LOAD MPKI: 2.81679
L2C RFO       ACCESS:    3694102  HIT:     182808  MISS:    3511294  HIT %:    4.94865  MISS %:    95.0514   MPKI: 17.5565
L2C PREFETCH  ACCESS:     498852  HIT:      29278  MISS:     469574  HIT %:    5.86908  MISS %:    94.1309   MPKI: 2.34787
AGUS PREFETCH L1 MISS: 0
L2C DATA PREFETCH MPKI: 2.34787
L2C INSTRUCTION PREFETCH MPKI: 0
L2C WRITEBACK ACCESS:    4341513  HIT:    4205281  MISS:     136232  HIT %:    96.8621  MISS %:    3.13789   MPKI: 0.68116
L2C LOAD TRANSLATION ACCESS:      84869  HIT:      45445  MISS:      39424  HIT %:    53.5472  MISS %:    46.4528   MPKI: 0.19712
L2C TRANSLATION FROM L1D PREFETCHER ACCESS:       7692  HIT:       3558  MISS:       4134  HIT %:    46.2559  MISS %:    53.7441   MPKI: 0.02067
L2C PREFETCH  REQUESTED:          0  ISSUED:          0  USEFUL:       5493  USELESS:     468185
L2C USEFUL LOAD PREFETCHES:       5493 PREFETCH ISSUED TO LOWER LEVEL:     469574  ACCURACY: 1.16978
L2C TIMELY PREFETCHES:       5493 LATE PREFETCHES: 0 DROPPED PREFETCHES: 0
L2C PREFETCHES SAME FILL-ORIGIN LEVEL: 0 DIFFERENT FILL-ORIGIN LEVEL: 0
L2C AVERAGE MISS LATENCY: 157.917 cycles
L2C RQ	ACCESS:   15471693	FORWARD:          0	MERGED:          0	TO_CACHE:   15471552
L2C WQ	ACCESS:    4341513	FORWARD:        193	MERGED:          0	TO_CACHE:    4341513
L2C PQ	ACCESS:     498904	FORWARD:          0	MERGED:          0	TO_CACHE:     498852

L2C Instructions Evicting Data 514616
L2C Translations Evicting Data 40462
L2C Data Evicting Data 5297448
L2C Instructions Evicting Instructions 45729
L2C Translations Evicting Instructions 2902
L2C Data Evicting Instructions 501786
L2C Instructions Evicting Translations 3014
L2C Translations Evicting Translations 194
L2C Data Evicting Translations 39725
L2C Dense regions hint from L2: 0
PSCL5 TOTAL     ACCESS:      82240  HIT:      82240  MISS:          0  HIT %:        100  MISS %:          0   MPKI: 0
PSCL5 LOAD TRANSLATION ACCESS:      75610  HIT:      75610  MISS:          0  HIT %:        100  MISS %:          0   MPKI: 0
PSCL5 TRANSLATION FROM L1D PREFETCHER ACCESS:       6630  HIT:       6630  MISS:          0  HIT %:        100  MISS %:          0   MPKI: 0
PSCL5 PREFETCH  REQUESTED:          0  ISSUED:          0  USEFUL:          0  USELESS:          0
PSCL5 USEFUL LOAD PREFETCHES:          0 PREFETCH ISSUED TO LOWER LEVEL:          0  ACCURACY: -nan
PSCL5 TIMELY PREFETCHES:          0 LATE PREFETCHES: 0 DROPPED PREFETCHES: 0
PSCL5 PREFETCHES SAME FILL-ORIGIN LEVEL: 0 DIFFERENT FILL-ORIGIN LEVEL: 0

PSCL4 TOTAL     ACCESS:      78795  HIT:      78582  MISS:        213  HIT %:    99.7297  MISS %:   0.270322   MPKI: 0.001065
PSCL4 LOAD TRANSLATION ACCESS:      72513  HIT:      72300  MISS:        213  HIT %:    99.7063  MISS %:    0.29374   MPKI: 0.001065
PSCL4 TRANSLATION FROM L1D PREFETCHER ACCESS:       6282  HIT:       6282  MISS:          0  HIT %:        100  MISS %:          0   MPKI: 0
PSCL4 PREFETCH  REQUESTED:          0  ISSUED:          0  USEFUL:          0  USELESS:          0
PSCL4 USEFUL LOAD PREFETCHES:          0 PREFETCH ISSUED TO LOWER LEVEL:          0  ACCURACY: -nan
PSCL4 TIMELY PREFETCHES:          0 LATE PREFETCHES: 0 DROPPED PREFETCHES: 0
PSCL4 PREFETCHES SAME FILL-ORIGIN LEVEL: 0 DIFFERENT FILL-ORIGIN LEVEL: 0

PSCL3 TOTAL     ACCESS:      82095  HIT:      81882  MISS:        213  HIT %:    99.7405  MISS %:   0.259456   MPKI: 0.001065
PSCL3 LOAD TRANSLATION ACCESS:      75537  HIT:      75324  MISS:        213  HIT %:     99.718  MISS %:   0.281981   MPKI: 0.001065
PSCL3 TRANSLATION FROM L1D PREFETCHER ACCESS:       6558  HIT:       6558  MISS:          0  HIT %:        100  MISS %:          0   MPKI: 0
PSCL3 PREFETCH  REQUESTED:          0  ISSUED:          0  USEFUL:          0  USELESS:          0
PSCL3 USEFUL LOAD PREFETCHES:          0 PREFETCH ISSUED TO LOWER LEVEL:          0  ACCURACY: -nan
PSCL3 TIMELY PREFETCHES:          0 LATE PREFETCHES: 0 DROPPED PREFETCHES: 0
PSCL3 PREFETCHES SAME FILL-ORIGIN LEVEL: 0 DIFFERENT FILL-ORIGIN LEVEL: 0

PSCL2 TOTAL     ACCESS:      81064  HIT:      72150  MISS:       8914  HIT %:    89.0038  MISS %:    10.9962   MPKI: 0.04457
PSCL2 LOAD TRANSLATION ACCESS:      75691  HIT:      66777  MISS:       8914  HIT %:    88.2232  MISS %:    11.7768   MPKI: 0.04457
PSCL2 TRANSLATION FROM L1D PREFETCHER ACCESS:       5373  HIT:       5373  MISS:          0  HIT %:        100  MISS %:          0   MPKI: 0
PSCL2 PREFETCH  REQUESTED:          0  ISSUED:          0  USEFUL:          0  USELESS:          0
PSCL2 USEFUL LOAD PREFETCHES:          0 PREFETCH ISSUED TO LOWER LEVEL:          0  ACCURACY: -nan
PSCL2 TIMELY PREFETCHES:          0 LATE PREFETCHES: 0 DROPPED PREFETCHES: 0
PSCL2 PREFETCHES SAME FILL-ORIGIN LEVEL: 0 DIFFERENT FILL-ORIGIN LEVEL: 0

LLC TOTAL     ACCESS:   10451398  HIT:    4225454  MISS:    6225944  HIT %:    40.4296  MISS %:    59.5704   MPKI: 31.1297
LLC LOAD      ACCESS:    2421447  HIT:    1628731  MISS:     792716  HIT %:    67.2627  MISS %:    32.7373   MPKI: 3.96358
LLC RFO       ACCESS:    3511270  HIT:     996505  MISS:    2514765  HIT %:    28.3802  MISS %:    71.6198   MPKI: 12.5738
LLC PREFETCH  ACCESS:     469574  HIT:      16751  MISS:     452823  HIT %:    3.56728  MISS %:    96.4327   MPKI: 2.26411
AGUS PREFETCH L1 MISS: 0
LLC WRITEBACK ACCESS:    4005549  HIT:    1565988  MISS:    2439561  HIT %:    39.0955  MISS %:    60.9045   MPKI: 12.1978
LLC LOAD TRANSLATION ACCESS:      39424  HIT:      16017  MISS:      23407  HIT %:    40.6275  MISS %:    59.3725   MPKI: 0.117035
LLC TRANSLATION FROM L1D PREFETCHER ACCESS:       4134  HIT:       1462  MISS:       2672  HIT %:    35.3653  MISS %:    64.6347   MPKI: 0.01336
LLC PREFETCH  REQUESTED:          0  ISSUED:          0  USEFUL:       1111  USELESS:     454592
LLC USEFUL LOAD PREFETCHES:       1111 PREFETCH ISSUED TO LOWER LEVEL:     452823  ACCURACY: 0.24535
LLC TIMELY PREFETCHES:       1111 LATE PREFETCHES: 0 DROPPED PREFETCHES: 0
LLC PREFETCHES SAME FILL-ORIGIN LEVEL: 0 DIFFERENT FILL-ORIGIN LEVEL: 0
LLC AVERAGE MISS LATENCY: 135.889 cycles
LLC RQ	ACCESS:    5976302	FORWARD:          0	MERGED:          0	TO_CACHE:    5976275
LLC WQ	ACCESS:    4005549	FORWARD:         27	MERGED:          0	TO_CACHE:    4005549
LLC PQ	ACCESS:     469574	FORWARD:          0	MERGED:          0	TO_CACHE:     469574

LLC Dense regions hint to LLC: 0

RAW hits: 2438663
Loads Generated: 47783216
Loads sent to L1D: 45344558
Stores Generated: 34178908
Stores sent to L1D: 34178909
Major fault: 0 Minor fault: 8494
Allocated PAGES: 8494
Completed 
Accuracy : 77.8844
Number of unique groups: 3234922

DRAM Statistics
 CHANNEL 0
 RQ ROW_BUFFER_HIT:    1842681  ROW_BUFFER_MISS:    1943335
 DBUS_CONGESTED:       2030
 WQ ROW_BUFFER_HIT:     533415  ROW_BUFFER_MISS:    2041818  FULL:      64563

 AVG_CONGESTED_CYCLE: 3
 All warmup complete: 2
Channel 0 Bank busy for read cycles: 0
Channel 0 Bank busy for write cycles: 0
Channel 0
Rank 0
0banks busy for read cycles: 181187452
0banks busy for write cycles: 267124
1banks busy for read cycles: 27190054
1banks busy for write cycles: 37492166
2banks busy for read cycles: 11233948
2banks busy for write cycles: 12827606
3banks busy for read cycles: 15267095
3banks busy for write cycles: 5420576
4banks busy for read cycles: 5594501
4banks busy for write cycles: 3498975
5banks busy for read cycles: 4804908
5banks busy for write cycles: 3085037
6banks busy for read cycles: 5919883
6banks busy for write cycles: 3151869
7banks busy for read cycles: 6996472
7banks busy for write cycles: 5737957
8banks busy for read cycles: 20505447
8banks busy for write cycles: 34666860

CPU 0 Branch Prediction Accuracy: 99.9484% MPKI: 0.078705 Average ROB Occupancy at Mispredict: 123.676
Branch types
NOT_BRANCH: 169466868 84.7334%
BRANCH_DIRECT_JUMP: 1660636 0.830318%
BRANCH_INDIRECT: 10006678 5.00334%
BRANCH_CONDITIONAL: 12018715 6.00936%
BRANCH_DIRECT_CALL: 2826795 1.4134%
BRANCH_INDIRECT_CALL: 596648 0.298324%
BRANCH_RETURN: 3423438 1.71172%
BRANCH_OTHER: 0 0%

DRAM PAGES: 1048576
Allocated PAGES: 8494
