
*** ChampSim Multicore Out-of-Order Simulator ***

Warmup Instructions: 50000000
Simulation Instructions: 200000000
Number of CPUs: 1
LLC sets: 2048
LLC ways: 16
Off-chip DRAM Size: 4096 MB Channels: 1 Width: 64-bit Data Rate: 6400 MT/s
CPU 0 runs traces/spec2k17/srv_20.champsimtrace.xz
.xz
BTB has LRU replacement policy
ITLB has LRU replacement policy
DTLB has LRU replacement policy
STLB has LRU replacement policy
L1I has LRU replacement policy
L1D has LRU replacement policy
Initialize SRRIP state for L2C
Initialize DRRIP state for LLC
Heartbeat CPU 0 instructions: 10000001 cycles: 2823963 heartbeat IPC: 3.54112 cumulative IPC: 3.54112 (Simulation time: 0 hr 0 min 41 sec) 
Heartbeat CPU 0 instructions: 20000003 cycles: 5639186 heartbeat IPC: 3.55212 cumulative IPC: 3.54661 (Simulation time: 0 hr 1 min 19 sec) 
Heartbeat CPU 0 instructions: 30000003 cycles: 8456711 heartbeat IPC: 3.54921 cumulative IPC: 3.54748 (Simulation time: 0 hr 2 min 0 sec) 
*** Reached end of trace for Core: 0 Repeating trace: traces/spec2k17/srv_20.champsimtrace.xz
Heartbeat CPU 0 instructions: 40000000 cycles: 11274004 heartbeat IPC: 3.54951 cumulative IPC: 3.54799 (Simulation time: 0 hr 2 min 42 sec) 
Heartbeat CPU 0 instructions: 50000003 cycles: 14089551 heartbeat IPC: 3.55171 cumulative IPC: 3.54873 (Simulation time: 0 hr 3 min 24 sec) 

Warmup complete CPU 0 instructions: 50000003 cycles: 14089551 (Simulation time: 0 hr 3 min 24 sec) 

Heartbeat CPU 0 instructions: 60000003 cycles: 46240920 heartbeat IPC: 0.311029 cumulative IPC: 0.311029 (Simulation time: 0 hr 4 min 31 sec) 
*** Reached end of trace for Core: 0 Repeating trace: traces/spec2k17/srv_20.champsimtrace.xz
Heartbeat CPU 0 instructions: 70000003 cycles: 78327737 heartbeat IPC: 0.311654 cumulative IPC: 0.311341 (Simulation time: 0 hr 5 min 42 sec) 
Heartbeat CPU 0 instructions: 80000000 cycles: 110300394 heartbeat IPC: 0.312767 cumulative IPC: 0.311815 (Simulation time: 0 hr 6 min 49 sec) 
Heartbeat CPU 0 instructions: 90000001 cycles: 142327664 heartbeat IPC: 0.312234 cumulative IPC: 0.31192 (Simulation time: 0 hr 7 min 54 sec) 
*** Reached end of trace for Core: 0 Repeating trace: traces/spec2k17/srv_20.champsimtrace.xz
Heartbeat CPU 0 instructions: 100000001 cycles: 174384739 heartbeat IPC: 0.311944 cumulative IPC: 0.311925 (Simulation time: 0 hr 9 min 2 sec) 
Heartbeat CPU 0 instructions: 110000000 cycles: 206406439 heartbeat IPC: 0.312288 cumulative IPC: 0.311985 (Simulation time: 0 hr 10 min 12 sec) 
Heartbeat CPU 0 instructions: 120000000 cycles: 238377573 heartbeat IPC: 0.312782 cumulative IPC: 0.312099 (Simulation time: 0 hr 11 min 22 sec) 
*** Reached end of trace for Core: 0 Repeating trace: traces/spec2k17/srv_20.champsimtrace.xz
Heartbeat CPU 0 instructions: 130000000 cycles: 270394133 heartbeat IPC: 0.312338 cumulative IPC: 0.312129 (Simulation time: 0 hr 12 min 35 sec) 
Heartbeat CPU 0 instructions: 140000000 cycles: 302418481 heartbeat IPC: 0.312262 cumulative IPC: 0.312143 (Simulation time: 0 hr 13 min 50 sec) 
Heartbeat CPU 0 instructions: 150000000 cycles: 334345598 heartbeat IPC: 0.313213 cumulative IPC: 0.31225 (Simulation time: 0 hr 15 min 8 sec) 
*** Reached end of trace for Core: 0 Repeating trace: traces/spec2k17/srv_20.champsimtrace.xz
Heartbeat CPU 0 instructions: 160000003 cycles: 366288474 heartbeat IPC: 0.313059 cumulative IPC: 0.312324 (Simulation time: 0 hr 16 min 24 sec) 
Heartbeat CPU 0 instructions: 170000001 cycles: 398346666 heartbeat IPC: 0.311933 cumulative IPC: 0.312291 (Simulation time: 0 hr 17 min 41 sec) 
Heartbeat CPU 0 instructions: 180000001 cycles: 430098427 heartbeat IPC: 0.314943 cumulative IPC: 0.312493 (Simulation time: 0 hr 19 min 6 sec) 
*** Reached end of trace for Core: 0 Repeating trace: traces/spec2k17/srv_20.champsimtrace.xz
Heartbeat CPU 0 instructions: 190000002 cycles: 461957379 heartbeat IPC: 0.313884 cumulative IPC: 0.312592 (Simulation time: 0 hr 20 min 31 sec) 
Heartbeat CPU 0 instructions: 200000000 cycles: 493875937 heartbeat IPC: 0.313297 cumulative IPC: 0.312639 (Simulation time: 0 hr 21 min 54 sec) 
Heartbeat CPU 0 instructions: 210000002 cycles: 525524027 heartbeat IPC: 0.315975 cumulative IPC: 0.312846 (Simulation time: 0 hr 23 min 21 sec) 
*** Reached end of trace for Core: 0 Repeating trace: traces/spec2k17/srv_20.champsimtrace.xz
Heartbeat CPU 0 instructions: 220000000 cycles: 557322078 heartbeat IPC: 0.314485 cumulative IPC: 0.312941 (Simulation time: 0 hr 24 min 45 sec) 
Heartbeat CPU 0 instructions: 230000000 cycles: 589183196 heartbeat IPC: 0.313862 cumulative IPC: 0.312993 (Simulation time: 0 hr 26 min 12 sec) 
Heartbeat CPU 0 instructions: 240000000 cycles: 620902430 heartbeat IPC: 0.315266 cumulative IPC: 0.313111 (Simulation time: 0 hr 27 min 36 sec) 
*** Reached end of trace for Core: 0 Repeating trace: traces/spec2k17/srv_20.champsimtrace.xz
Heartbeat CPU 0 instructions: 250000002 cycles: 652733450 heartbeat IPC: 0.314159 cumulative IPC: 0.313164 (Simulation time: 0 hr 29 min 22 sec) 
Finished CPU 0 instructions: 200000003 cycles: 638643900 cumulative IPC: 0.313164 (Simulation time: 0 hr 29 min 22 sec) 

ChampSim completed all CPUs

Region of Interest Statistics

CPU 0 cumulative IPC: 0.313164 instructions: 200000003 cycles: 638643900
ITLB TOTAL     ACCESS:   34704457  HIT:   32670773  MISS:    2033684  HIT %:      94.14  MISS %:    5.86001   MPKI: 10.1684
ITLB LOAD TRANSLATION ACCESS:   34704457  HIT:   32670773  MISS:    2033684  HIT %:      94.14  MISS %:    5.86001   MPKI: 10.1684
ITLB PREFETCH  REQUESTED:          0  ISSUED:          0  USEFUL:          0  USELESS:          0
ITLB USEFUL LOAD PREFETCHES:          0 PREFETCH ISSUED TO LOWER LEVEL:          0  ACCURACY: -nan
ITLB TIMELY PREFETCHES:          0 LATE PREFETCHES: 0 DROPPED PREFETCHES: 0
ITLB PREFETCHES SAME FILL-ORIGIN LEVEL: 0 DIFFERENT FILL-ORIGIN LEVEL: 0
ITLB AVERAGE MISS LATENCY: 9.04045 cycles
ITLB RQ	ACCESS:   40929761	FORWARD:          0	MERGED:    5740540	TO_CACHE:   35189221

DTLB TOTAL     ACCESS:   46493324  HIT:   44651620  MISS:    1841704  HIT %:    96.0388  MISS %:    3.96122   MPKI: 9.20852
DTLB LOAD TRANSLATION ACCESS:   46493324  HIT:   44651620  MISS:    1841704  HIT %:    96.0388  MISS %:    3.96122   MPKI: 9.20852
DTLB PREFETCH  REQUESTED:          0  ISSUED:          0  USEFUL:          0  USELESS:          0
DTLB USEFUL LOAD PREFETCHES:          0 PREFETCH ISSUED TO LOWER LEVEL:          0  ACCURACY: -nan
DTLB TIMELY PREFETCHES:          0 LATE PREFETCHES: 0 DROPPED PREFETCHES: 0
DTLB PREFETCHES SAME FILL-ORIGIN LEVEL: 0 DIFFERENT FILL-ORIGIN LEVEL: 0
DTLB AVERAGE MISS LATENCY: 9.03851 cycles
DTLB RQ	ACCESS:   61135506	FORWARD:          0	MERGED:   14578544	TO_CACHE:   46556962

STLB TOTAL     ACCESS:    6523366  HIT:    6515088  MISS:       8278  HIT %:    99.8731  MISS %:   0.126898   MPKI: 0.04139
STLB LOAD TRANSLATION ACCESS:    3875388  HIT:    3867153  MISS:       8235  HIT %:    99.7875  MISS %:   0.212495   MPKI: 0.041175
STLB TRANSLATION FROM L1D PREFETCHER ACCESS:    2647978  HIT:    2647935  MISS:         43  HIT %:    99.9984  MISS %: 0.00162388   MPKI: 0.000215
STLB PREFETCH  REQUESTED:          0  ISSUED:          0  USEFUL:         37  USELESS:          6
STLB USEFUL LOAD PREFETCHES:         37 PREFETCH ISSUED TO LOWER LEVEL:          0  ACCURACY: inf
STLB TIMELY PREFETCHES:         37 LATE PREFETCHES: 9 DROPPED PREFETCHES: 1659
STLB PREFETCHES SAME FILL-ORIGIN LEVEL: 0 DIFFERENT FILL-ORIGIN LEVEL: 0
STLB AVERAGE MISS LATENCY: 44.3716 cycles
STLB RQ	ACCESS:    7148670	FORWARD:          0	MERGED:     623635	TO_CACHE:    6525035

STLB Hit, L1D data hit: 0
STLB Hit, L2C data hit: 0
STLB Hit, LLC data hit: 0
STLB Hit, LLC data miss: 0
STLB STLB hints to L2: 0
L1D TOTAL     ACCESS:   62335345  HIT:   58367768  MISS:    3967577  HIT %:    93.6351  MISS %:    6.36489   MPKI: 19.8379
L1D LOAD      ACCESS:   34208355  HIT:   31596258  MISS:    2612097  HIT %:    92.3642  MISS %:    7.63585   MPKI: 13.0605
L1D RFO       ACCESS:   25032500  HIT:   23906849  MISS:    1125651  HIT %:    95.5032  MISS %:    4.49676   MPKI: 5.62825
L1D PREFETCH  ACCESS:    3094490  HIT:    2864661  MISS:     229829  HIT %:     92.573  MISS %:    7.42704   MPKI: 1.14914
AGUS PREFETCH L1 MISS: 0
L1D PREFETCH  REQUESTED:    6782202  ISSUED:    6782202  USEFUL:     225684  USELESS:       4145
L1D USEFUL LOAD PREFETCHES:     225684 PREFETCH ISSUED TO LOWER LEVEL:     322836  ACCURACY: 69.9067
L1D TIMELY PREFETCHES:     225684 LATE PREFETCHES: 91893 DROPPED PREFETCHES: 1724
L1D PREFETCHES SAME FILL-ORIGIN LEVEL: 322836 DIFFERENT FILL-ORIGIN LEVEL: 0
L1D AVERAGE MISS LATENCY: 1.09761e+07 cycles
L1D RQ	ACCESS:   47508588	FORWARD:          0	MERGED:   12864886	TO_CACHE:   34344081
L1D WQ	ACCESS:   26961101	FORWARD:     305402	MERGED:     169676	TO_CACHE:   26791425
L1D PQ	ACCESS:    3508920	FORWARD:          0	MERGED:     229857	TO_CACHE:    3273282

L1D UNIQUE REGIONS ACCESSED: 0
L1D REGIONS CONFLICTS: 0
L1D Cross Page Prefetch Requests: 2618778
L1D Same Page Prefetch Requests: 891774
L1D ROI Sum of L1D PQ occupancy: 45522495
L1D PREFETCHES PUSHED FROM L2C: 0
L1I TOTAL     ACCESS:   39406610  HIT:   28790104  MISS:   10616506  HIT %:    73.0591  MISS %:    26.9409   MPKI: 53.0825
L1I LOAD      ACCESS:   39406610  HIT:   28790104  MISS:   10616506  HIT %:    73.0591  MISS %:    26.9409   MPKI: 53.0825
L1I PREFETCH  REQUESTED:          0  ISSUED:          0  USEFUL:          0  USELESS:          0
L1I USEFUL LOAD PREFETCHES:          0 PREFETCH ISSUED TO LOWER LEVEL:          0  ACCURACY: -nan
L1I TIMELY PREFETCHES:          0 LATE PREFETCHES: 0 DROPPED PREFETCHES: 0
L1I PREFETCHES SAME FILL-ORIGIN LEVEL: 0 DIFFERENT FILL-ORIGIN LEVEL: 0
L1I AVERAGE MISS LATENCY: 16.5355 cycles
L1I RQ	ACCESS:   57955597	FORWARD:          0	MERGED:   17025836	TO_CACHE:   40929761

BTB TOTAL     ACCESS:   29994000  HIT:   17272559  MISS:   12721441  HIT %:    57.5867  MISS %:    42.4133   MPKI: 63.6072
BTB BRANCH_DIRECT_JUMP	ACCESS:    2025964  HIT:    1135056  MISS:     890908
BTB BRANCH_INDIRECT	ACCESS:   11876543  HIT:    7045667  MISS:    4830876
BTB BRANCH_CONDITIONAL	ACCESS:    7549910  HIT:    6212601  MISS:    1337309
BTB BRANCH_DIRECT_CALL	ACCESS:    3602862  HIT:    1507613  MISS:    2095249
BTB BRANCH_INDIRECT_CALL	ACCESS:     667964  HIT:     262432  MISS:     405532
BTB BRANCH_RETURN	ACCESS:    4270757  HIT:    1109190  MISS:    3161567
BTB BRANCH_OTHER ACCESS:          0  HIT:          0  MISS:          0

L2C TOTAL     ACCESS:   16563169  HIT:   15064084  MISS:    1499085  HIT %:    90.9493  MISS %:    9.05071   MPKI: 7.49542
L2C LOAD      ACCESS:   13136710  HIT:   11939789  MISS:    1196921  HIT %:    90.8887  MISS %:    9.11127   MPKI: 5.9846
L2C DATA LOAD MPKI: 1.63921
L2C INSTRUCTION LOAD MPKI: 4.34539
L2C RFO       ACCESS:    1124536  HIT:     913249  MISS:     211287  HIT %:    81.2112  MISS %:    18.7888   MPKI: 1.05643
L2C PREFETCH  ACCESS:     322835  HIT:     304609  MISS:      18226  HIT %:    94.3544  MISS %:    5.64561   MPKI: 0.09113
AGUS PREFETCH L1 MISS: 0
L2C DATA PREFETCH MPKI: 0.09113
L2C INSTRUCTION PREFETCH MPKI: 0
L2C WRITEBACK ACCESS:    1967115  HIT:    1901908  MISS:      65207  HIT %:    96.6851  MISS %:    3.31485   MPKI: 0.326035
L2C LOAD TRANSLATION ACCESS:       9065  HIT:       3100  MISS:       5965  HIT %:    34.1975  MISS %:    65.8025   MPKI: 0.029825
L2C TRANSLATION FROM L1D PREFETCHER ACCESS:       2908  HIT:       1429  MISS:       1479  HIT %:    49.1403  MISS %:    50.8597   MPKI: 0.007395
L2C PREFETCH  REQUESTED:          0  ISSUED:          0  USEFUL:       5744  USELESS:      13920
L2C USEFUL LOAD PREFETCHES:       5744 PREFETCH ISSUED TO LOWER LEVEL:      18226  ACCURACY: 31.5154
L2C TIMELY PREFETCHES:       5744 LATE PREFETCHES: 0 DROPPED PREFETCHES: 0
L2C PREFETCHES SAME FILL-ORIGIN LEVEL: 0 DIFFERENT FILL-ORIGIN LEVEL: 0
L2C AVERAGE MISS LATENCY: 30.001 cycles
L2C RQ	ACCESS:   14273220	FORWARD:          0	MERGED:          0	TO_CACHE:   14273219
L2C WQ	ACCESS:    1967115	FORWARD:          2	MERGED:          0	TO_CACHE:    1967115
L2C PQ	ACCESS:     322836	FORWARD:          0	MERGED:          0	TO_CACHE:     322835

L2C Instructions Evicting Data 322399
L2C Translations Evicting Data 4767
L2C Data Evicting Data 269984
L2C Instructions Evicting Instructions 543903
L2C Translations Evicting Instructions 2607
L2C Data Evicting Instructions 282976
L2C Instructions Evicting Translations 2777
L2C Translations Evicting Translations 70
L2C Data Evicting Translations 4395
L2C Dense regions hint from L2: 0
PSCL5 TOTAL     ACCESS:       9934  HIT:       9934  MISS:          0  HIT %:        100  MISS %:          0   MPKI: 0
PSCL5 LOAD TRANSLATION ACCESS:       8226  HIT:       8226  MISS:          0  HIT %:        100  MISS %:          0   MPKI: 0
PSCL5 TRANSLATION FROM L1D PREFETCHER ACCESS:       1708  HIT:       1708  MISS:          0  HIT %:        100  MISS %:          0   MPKI: 0
PSCL5 PREFETCH  REQUESTED:          0  ISSUED:          0  USEFUL:          0  USELESS:          0
PSCL5 USEFUL LOAD PREFETCHES:          0 PREFETCH ISSUED TO LOWER LEVEL:          0  ACCURACY: -nan
PSCL5 TIMELY PREFETCHES:          0 LATE PREFETCHES: 0 DROPPED PREFETCHES: 0
PSCL5 PREFETCHES SAME FILL-ORIGIN LEVEL: 0 DIFFERENT FILL-ORIGIN LEVEL: 0

PSCL4 TOTAL     ACCESS:       9038  HIT:       8945  MISS:         93  HIT %:     98.971  MISS %:    1.02899   MPKI: 0.000465
PSCL4 LOAD TRANSLATION ACCESS:       7664  HIT:       7571  MISS:         93  HIT %:    98.7865  MISS %:    1.21347   MPKI: 0.000465
PSCL4 TRANSLATION FROM L1D PREFETCHER ACCESS:       1374  HIT:       1374  MISS:          0  HIT %:        100  MISS %:          0   MPKI: 0
PSCL4 PREFETCH  REQUESTED:          0  ISSUED:          0  USEFUL:          0  USELESS:          0
PSCL4 USEFUL LOAD PREFETCHES:          0 PREFETCH ISSUED TO LOWER LEVEL:          0  ACCURACY: -nan
PSCL4 TIMELY PREFETCHES:          0 LATE PREFETCHES: 0 DROPPED PREFETCHES: 0
PSCL4 PREFETCHES SAME FILL-ORIGIN LEVEL: 0 DIFFERENT FILL-ORIGIN LEVEL: 0

PSCL3 TOTAL     ACCESS:       9446  HIT:       9353  MISS:         93  HIT %:    99.0155  MISS %:   0.984544   MPKI: 0.000465
PSCL3 LOAD TRANSLATION ACCESS:       7836  HIT:       7743  MISS:         93  HIT %:    98.8132  MISS %:    1.18683   MPKI: 0.000465
PSCL3 TRANSLATION FROM L1D PREFETCHER ACCESS:       1610  HIT:       1610  MISS:          0  HIT %:        100  MISS %:          0   MPKI: 0
PSCL3 PREFETCH  REQUESTED:          0  ISSUED:          0  USEFUL:          0  USELESS:          0
PSCL3 USEFUL LOAD PREFETCHES:          0 PREFETCH ISSUED TO LOWER LEVEL:          0  ACCURACY: -nan
PSCL3 TIMELY PREFETCHES:          0 LATE PREFETCHES: 0 DROPPED PREFETCHES: 0
PSCL3 PREFETCHES SAME FILL-ORIGIN LEVEL: 0 DIFFERENT FILL-ORIGIN LEVEL: 0

PSCL2 TOTAL     ACCESS:       8730  HIT:       8062  MISS:        668  HIT %:    92.3482  MISS %:    7.65178   MPKI: 0.00334
PSCL2 LOAD TRANSLATION ACCESS:       8237  HIT:       7569  MISS:        668  HIT %:    91.8903  MISS %:    8.10975   MPKI: 0.00334
PSCL2 TRANSLATION FROM L1D PREFETCHER ACCESS:        493  HIT:        493  MISS:          0  HIT %:        100  MISS %:          0   MPKI: 0
PSCL2 PREFETCH  REQUESTED:          0  ISSUED:          0  USEFUL:          0  USELESS:          0
PSCL2 USEFUL LOAD PREFETCHES:          0 PREFETCH ISSUED TO LOWER LEVEL:          0  ACCURACY: -nan
PSCL2 TIMELY PREFETCHES:          0 LATE PREFETCHES: 0 DROPPED PREFETCHES: 0
PSCL2 PREFETCHES SAME FILL-ORIGIN LEVEL: 0 DIFFERENT FILL-ORIGIN LEVEL: 0

LLC TOTAL     ACCESS:    1723932  HIT:    1710402  MISS:      13530  HIT %:    99.2152  MISS %:   0.784834   MPKI: 0.06765
LLC LOAD      ACCESS:    1196921  HIT:    1189742  MISS:       7179  HIT %:    99.4002  MISS %:   0.599789   MPKI: 0.035895
LLC RFO       ACCESS:     211287  HIT:     205361  MISS:       5926  HIT %:    97.1953  MISS %:    2.80472   MPKI: 0.02963
LLC PREFETCH  ACCESS:      18226  HIT:      18024  MISS:        202  HIT %:    98.8917  MISS %:    1.10831   MPKI: 0.00101
AGUS PREFETCH L1 MISS: 0
LLC WRITEBACK ACCESS:     290054  HIT:     290004  MISS:         50  HIT %:    99.9828  MISS %:  0.0172382   MPKI: 0.00025
LLC LOAD TRANSLATION ACCESS:       5965  HIT:       5866  MISS:         99  HIT %:    98.3403  MISS %:    1.65968   MPKI: 0.000495
LLC TRANSLATION FROM L1D PREFETCHER ACCESS:       1479  HIT:       1405  MISS:         74  HIT %:    94.9966  MISS %:    5.00338   MPKI: 0.00037
LLC PREFETCH  REQUESTED:          0  ISSUED:          0  USEFUL:         34  USELESS:         56
LLC USEFUL LOAD PREFETCHES:         34 PREFETCH ISSUED TO LOWER LEVEL:        202  ACCURACY: 16.8317
LLC TIMELY PREFETCHES:         34 LATE PREFETCHES: 0 DROPPED PREFETCHES: 0
LLC PREFETCHES SAME FILL-ORIGIN LEVEL: 0 DIFFERENT FILL-ORIGIN LEVEL: 0
LLC AVERAGE MISS LATENCY: 144.667 cycles
LLC RQ	ACCESS:    1415652	FORWARD:          0	MERGED:          0	TO_CACHE:    1415652
LLC WQ	ACCESS:     290054	FORWARD:          0	MERGED:          0	TO_CACHE:     290054
LLC PQ	ACCESS:      18226	FORWARD:          0	MERGED:          0	TO_CACHE:      18226

LLC Dense regions hint to LLC: 0

RAW hits: 1429347
Loads Generated: 48937935
Loads sent to L1D: 47508588
Stores Generated: 26961103
Stores sent to L1D: 26961101
Major fault: 0 Minor fault: 1949
Allocated PAGES: 1949
Completed 
Accuracy : 93.2339
Number of unique groups: 2507403

DRAM Statistics
 CHANNEL 0
 RQ ROW_BUFFER_HIT:       3617  ROW_BUFFER_MISS:       9863
 DBUS_CONGESTED:         18
 WQ ROW_BUFFER_HIT:        506  ROW_BUFFER_MISS:       5893  FULL:          0

 AVG_CONGESTED_CYCLE: 5
 All warmup complete: 2
Channel 0 Bank busy for read cycles: 0
Channel 0 Bank busy for write cycles: 0
Channel 0
Rank 0
0banks busy for read cycles: 637030579
0banks busy for write cycles: 2848
1banks busy for read cycles: 738498
1banks busy for write cycles: 358081
2banks busy for read cycles: 157606
2banks busy for write cycles: 77508
3banks busy for read cycles: 69964
3banks busy for write cycles: 50517
4banks busy for read cycles: 36584
4banks busy for write cycles: 25055
5banks busy for read cycles: 21126
5banks busy for write cycles: 17708
6banks busy for read cycles: 10888
6banks busy for write cycles: 18182
7banks busy for read cycles: 7086
7banks busy for write cycles: 12602
8banks busy for read cycles: 3741
8banks busy for write cycles: 5328

CPU 0 Branch Prediction Accuracy: 99.8849% MPKI: 0.202245 Average ROB Occupancy at Mispredict: 31.9648
Branch types
NOT_BRANCH: 164866949 82.4335%
BRANCH_DIRECT_JUMP: 2025964 1.01298%
BRANCH_INDIRECT: 11876543 5.93827%
BRANCH_CONDITIONAL: 12688705 6.34435%
BRANCH_DIRECT_CALL: 3602862 1.80143%
BRANCH_INDIRECT_CALL: 667964 0.333982%
BRANCH_RETURN: 4270757 2.13538%
BRANCH_OTHER: 0 0%

DRAM PAGES: 1048576
Allocated PAGES: 1949
