
*** ChampSim Multicore Out-of-Order Simulator ***

Warmup Instructions: 50000000
Simulation Instructions: 200000000
Number of CPUs: 1
LLC sets: 2048
LLC ways: 16
Off-chip DRAM Size: 4096 MB Channels: 1 Width: 64-bit Data Rate: 6400 MT/s
CPU 0 runs traces/spec2k17/srv_70.champsimtrace.xz
.xz
BTB has LRU replacement policy
ITLB has LRU replacement policy
DTLB has LRU replacement policy
STLB has LRU replacement policy
L1I has LRU replacement policy
L1D has LRU replacement policy
Initialize SRRIP state for L2C
Initialize DRRIP state for LLC
Heartbeat CPU 0 instructions: 10000000 cycles: 2806876 heartbeat IPC: 3.56268 cumulative IPC: 3.56268 (Simulation time: 0 hr 0 min 52 sec) 
Heartbeat CPU 0 instructions: 20000000 cycles: 5612488 heartbeat IPC: 3.56428 cumulative IPC: 3.56348 (Simulation time: 0 hr 1 min 26 sec) 
Heartbeat CPU 0 instructions: 30000000 cycles: 8419561 heartbeat IPC: 3.56243 cumulative IPC: 3.56313 (Simulation time: 0 hr 1 min 59 sec) 
*** Reached end of trace for Core: 0 Repeating trace: traces/spec2k17/srv_70.champsimtrace.xz
Heartbeat CPU 0 instructions: 40000001 cycles: 11220766 heartbeat IPC: 3.56989 cumulative IPC: 3.56482 (Simulation time: 0 hr 2 min 38 sec) 
Heartbeat CPU 0 instructions: 50000003 cycles: 14024908 heartbeat IPC: 3.56615 cumulative IPC: 3.56509 (Simulation time: 0 hr 3 min 41 sec) 

Warmup complete CPU 0 instructions: 50000003 cycles: 14024908 (Simulation time: 0 hr 3 min 41 sec) 

Heartbeat CPU 0 instructions: 60000001 cycles: 44321896 heartbeat IPC: 0.330066 cumulative IPC: 0.330066 (Simulation time: 0 hr 4 min 34 sec) 
*** Reached end of trace for Core: 0 Repeating trace: traces/spec2k17/srv_70.champsimtrace.xz
Heartbeat CPU 0 instructions: 70000001 cycles: 74044459 heartbeat IPC: 0.336445 cumulative IPC: 0.333225 (Simulation time: 0 hr 5 min 27 sec) 
Heartbeat CPU 0 instructions: 80000001 cycles: 104190947 heartbeat IPC: 0.331714 cumulative IPC: 0.332719 (Simulation time: 0 hr 6 min 23 sec) 
Heartbeat CPU 0 instructions: 90000003 cycles: 133911793 heartbeat IPC: 0.336464 cumulative IPC: 0.333648 (Simulation time: 0 hr 7 min 29 sec) 
*** Reached end of trace for Core: 0 Repeating trace: traces/spec2k17/srv_70.champsimtrace.xz
Heartbeat CPU 0 instructions: 100000002 cycles: 163681910 heartbeat IPC: 0.335907 cumulative IPC: 0.334097 (Simulation time: 0 hr 9 min 7 sec) 
Heartbeat CPU 0 instructions: 110000000 cycles: 193667416 heartbeat IPC: 0.333494 cumulative IPC: 0.333997 (Simulation time: 0 hr 10 min 12 sec) 
Heartbeat CPU 0 instructions: 120000000 cycles: 223423846 heartbeat IPC: 0.336062 cumulative IPC: 0.33429 (Simulation time: 0 hr 11 min 6 sec) 
*** Reached end of trace for Core: 0 Repeating trace: traces/spec2k17/srv_70.champsimtrace.xz
Heartbeat CPU 0 instructions: 130000000 cycles: 253283964 heartbeat IPC: 0.334895 cumulative IPC: 0.334366 (Simulation time: 0 hr 12 min 1 sec) 
Heartbeat CPU 0 instructions: 140000002 cycles: 283203154 heartbeat IPC: 0.334234 cumulative IPC: 0.334351 (Simulation time: 0 hr 12 min 55 sec) 
Heartbeat CPU 0 instructions: 150000003 cycles: 313084545 heartbeat IPC: 0.334656 cumulative IPC: 0.334381 (Simulation time: 0 hr 13 min 47 sec) 
*** Reached end of trace for Core: 0 Repeating trace: traces/spec2k17/srv_70.champsimtrace.xz
Heartbeat CPU 0 instructions: 160000000 cycles: 343084276 heartbeat IPC: 0.333336 cumulative IPC: 0.334286 (Simulation time: 0 hr 14 min 34 sec) 
Heartbeat CPU 0 instructions: 170000001 cycles: 372592938 heartbeat IPC: 0.338884 cumulative IPC: 0.334665 (Simulation time: 0 hr 15 min 25 sec) 
Heartbeat CPU 0 instructions: 180000001 cycles: 402644581 heartbeat IPC: 0.332761 cumulative IPC: 0.334517 (Simulation time: 0 hr 16 min 19 sec) 
*** Reached end of trace for Core: 0 Repeating trace: traces/spec2k17/srv_70.champsimtrace.xz
Heartbeat CPU 0 instructions: 190000003 cycles: 432448822 heartbeat IPC: 0.335523 cumulative IPC: 0.334589 (Simulation time: 0 hr 17 min 10 sec) 
Heartbeat CPU 0 instructions: 200000002 cycles: 462082109 heartbeat IPC: 0.337458 cumulative IPC: 0.334779 (Simulation time: 0 hr 18 min 1 sec) 
Heartbeat CPU 0 instructions: 210000000 cycles: 492029411 heartbeat IPC: 0.33392 cumulative IPC: 0.334725 (Simulation time: 0 hr 19 min 13 sec) 
*** Reached end of trace for Core: 0 Repeating trace: traces/spec2k17/srv_70.champsimtrace.xz
Heartbeat CPU 0 instructions: 220000000 cycles: 521831798 heartbeat IPC: 0.335544 cumulative IPC: 0.334773 (Simulation time: 0 hr 20 min 1 sec) 
Heartbeat CPU 0 instructions: 230000001 cycles: 551220691 heartbeat IPC: 0.340265 cumulative IPC: 0.335073 (Simulation time: 0 hr 20 min 40 sec) 
Heartbeat CPU 0 instructions: 240000001 cycles: 581170219 heartbeat IPC: 0.333895 cumulative IPC: 0.335011 (Simulation time: 0 hr 21 min 17 sec) 
*** Reached end of trace for Core: 0 Repeating trace: traces/spec2k17/srv_70.champsimtrace.xz
Heartbeat CPU 0 instructions: 250000001 cycles: 610884709 heartbeat IPC: 0.336536 cumulative IPC: 0.335087 (Simulation time: 0 hr 21 min 52 sec) 
Finished CPU 0 instructions: 200000000 cycles: 596859813 cumulative IPC: 0.335087 (Simulation time: 0 hr 21 min 52 sec) 

ChampSim completed all CPUs

Region of Interest Statistics

CPU 0 cumulative IPC: 0.335087 instructions: 200000000 cycles: 596859813
ITLB TOTAL     ACCESS:   34459495  HIT:   32603606  MISS:    1855889  HIT %:    94.6143  MISS %:    5.38571   MPKI: 9.27945
ITLB LOAD TRANSLATION ACCESS:   34459495  HIT:   32603606  MISS:    1855889  HIT %:    94.6143  MISS %:    5.38571   MPKI: 9.27945
ITLB PREFETCH  REQUESTED:          0  ISSUED:          0  USEFUL:          0  USELESS:          0
ITLB USEFUL LOAD PREFETCHES:          0 PREFETCH ISSUED TO LOWER LEVEL:          0  ACCURACY: -nan
ITLB TIMELY PREFETCHES:          0 LATE PREFETCHES: 0 DROPPED PREFETCHES: 0
ITLB PREFETCHES SAME FILL-ORIGIN LEVEL: 0 DIFFERENT FILL-ORIGIN LEVEL: 0
ITLB AVERAGE MISS LATENCY: 9.03915 cycles
ITLB RQ	ACCESS:   40286974	FORWARD:          0	MERGED:    5379348	TO_CACHE:   34907626

DTLB TOTAL     ACCESS:   45344461  HIT:   43549749  MISS:    1794712  HIT %:     96.042  MISS %:    3.95795   MPKI: 8.97356
DTLB LOAD TRANSLATION ACCESS:   45344461  HIT:   43549749  MISS:    1794712  HIT %:     96.042  MISS %:    3.95795   MPKI: 8.97356
DTLB PREFETCH  REQUESTED:          0  ISSUED:          0  USEFUL:          0  USELESS:          0
DTLB USEFUL LOAD PREFETCHES:          0 PREFETCH ISSUED TO LOWER LEVEL:          0  ACCURACY: -nan
DTLB TIMELY PREFETCHES:          0 LATE PREFETCHES: 0 DROPPED PREFETCHES: 0
DTLB PREFETCHES SAME FILL-ORIGIN LEVEL: 0 DIFFERENT FILL-ORIGIN LEVEL: 0
DTLB AVERAGE MISS LATENCY: 9.13765 cycles
DTLB RQ	ACCESS:   59844300	FORWARD:          0	MERGED:   14436169	TO_CACHE:   45408131

STLB TOTAL     ACCESS:    5036372  HIT:    5026467  MISS:       9905  HIT %:    99.8033  MISS %:   0.196669   MPKI: 0.049525
STLB LOAD TRANSLATION ACCESS:    3650601  HIT:    3640760  MISS:       9841  HIT %:    99.7304  MISS %:   0.269572   MPKI: 0.049205
STLB TRANSLATION FROM L1D PREFETCHER ACCESS:    1385771  HIT:    1385707  MISS:         64  HIT %:    99.9954  MISS %: 0.00461837   MPKI: 0.00032
STLB PREFETCH  REQUESTED:          0  ISSUED:          0  USEFUL:         48  USELESS:         16
STLB USEFUL LOAD PREFETCHES:         48 PREFETCH ISSUED TO LOWER LEVEL:          0  ACCURACY: inf
STLB TIMELY PREFETCHES:         48 LATE PREFETCHES: 5 DROPPED PREFETCHES: 1321
STLB PREFETCHES SAME FILL-ORIGIN LEVEL: 0 DIFFERENT FILL-ORIGIN LEVEL: 0
STLB AVERAGE MISS LATENCY: 41.8193 cycles
STLB RQ	ACCESS:    5439710	FORWARD:          0	MERGED:     402007	TO_CACHE:    5037703

STLB Hit, L1D data hit: 0
STLB Hit, L2C data hit: 0
STLB Hit, LLC data hit: 0
STLB Hit, LLC data miss: 0
STLB STLB hints to L2: 0
L1D TOTAL     ACCESS:   59683283  HIT:   55822602  MISS:    3860681  HIT %:    93.5314  MISS %:    6.46861   MPKI: 19.3034
L1D LOAD      ACCESS:   33588501  HIT:   30950504  MISS:    2637997  HIT %:    92.1461  MISS %:    7.85387   MPKI: 13.19
L1D RFO       ACCESS:   24485173  HIT:   23411736  MISS:    1073437  HIT %:     95.616  MISS %:    4.38403   MPKI: 5.36719
L1D PREFETCH  ACCESS:    1609609  HIT:    1460362  MISS:     149247  HIT %:    90.7277  MISS %:    9.27225   MPKI: 0.746235
AGUS PREFETCH L1 MISS: 0
L1D PREFETCH  REQUESTED:    3645641  ISSUED:    3645629  USEFUL:     144706  USELESS:       4540
L1D USEFUL LOAD PREFETCHES:     144706 PREFETCH ISSUED TO LOWER LEVEL:     256474  ACCURACY: 56.4213
L1D TIMELY PREFETCHES:     144706 LATE PREFETCHES: 106966 DROPPED PREFETCHES: 1397
L1D PREFETCHES SAME FILL-ORIGIN LEVEL: 256474 DIFFERENT FILL-ORIGIN LEVEL: 0
L1D AVERAGE MISS LATENCY: 1.01228e+07 cycles
L1D RQ	ACCESS:   46892928	FORWARD:          0	MERGED:   12889545	TO_CACHE:   33709497
L1D WQ	ACCESS:   26309150	FORWARD:     295567	MERGED:     174347	TO_CACHE:   26134803
L1D PQ	ACCESS:    1856520	FORWARD:          0	MERGED:      65730	TO_CACHE:    1789109

L1D UNIQUE REGIONS ACCESSED: 0
L1D REGIONS CONFLICTS: 0
L1D Cross Page Prefetch Requests: 1308830
L1D Same Page Prefetch Requests: 554878
L1D ROI Sum of L1D PQ occupancy: 24962203
L1D PREFETCHES PUSHED FROM L2C: 0
L1I TOTAL     ACCESS:   38867434  HIT:   29157175  MISS:    9710259  HIT %:     75.017  MISS %:     24.983   MPKI: 48.5513
L1I LOAD      ACCESS:   38867434  HIT:   29157175  MISS:    9710259  HIT %:     75.017  MISS %:     24.983   MPKI: 48.5513
L1I PREFETCH  REQUESTED:          0  ISSUED:          0  USEFUL:          0  USELESS:          0
L1I USEFUL LOAD PREFETCHES:          0 PREFETCH ISSUED TO LOWER LEVEL:          0  ACCURACY: -nan
L1I TIMELY PREFETCHES:          0 LATE PREFETCHES: 0 DROPPED PREFETCHES: 0
L1I PREFETCHES SAME FILL-ORIGIN LEVEL: 0 DIFFERENT FILL-ORIGIN LEVEL: 0
L1I AVERAGE MISS LATENCY: 16.5387 cycles
L1I RQ	ACCESS:   57813319	FORWARD:          0	MERGED:   17526345	TO_CACHE:   40286974

BTB TOTAL     ACCESS:   30330112  HIT:   18855293  MISS:   11474819  HIT %:    62.1669  MISS %:    37.8331   MPKI: 57.3741
BTB BRANCH_DIRECT_JUMP	ACCESS:    2183492  HIT:    1381264  MISS:     802228
BTB BRANCH_INDIRECT	ACCESS:   11409987  HIT:    7107186  MISS:    4302801
BTB BRANCH_CONDITIONAL	ACCESS:    8659441  HIT:    7498829  MISS:    1160612
BTB BRANCH_DIRECT_CALL	ACCESS:    3412328  HIT:    1528915  MISS:    1883413
BTB BRANCH_INDIRECT_CALL	ACCESS:     626274  HIT:     246325  MISS:     379949
BTB BRANCH_RETURN	ACCESS:    4038590  HIT:    1092774  MISS:    2945816
BTB BRANCH_OTHER ACCESS:          0  HIT:          0  MISS:          0

L2C TOTAL     ACCESS:   15391387  HIT:   13983977  MISS:    1407410  HIT %:    90.8559  MISS %:    9.14414   MPKI: 7.03705
L2C LOAD      ACCESS:   12241270  HIT:   11112121  MISS:    1129149  HIT %:    90.7759  MISS %:    9.22412   MPKI: 5.64574
L2C DATA LOAD MPKI: 1.66946
L2C INSTRUCTION LOAD MPKI: 3.97628
L2C RFO       ACCESS:    1073176  HIT:     874833  MISS:     198343  HIT %:    81.5181  MISS %:    18.4819   MPKI: 0.991715
L2C PREFETCH  ACCESS:     256474  HIT:     232113  MISS:      24361  HIT %:    90.5016  MISS %:    9.49843   MPKI: 0.121805
AGUS PREFETCH L1 MISS: 0
L2C DATA PREFETCH MPKI: 0.121805
L2C INSTRUCTION PREFETCH MPKI: 0
L2C WRITEBACK ACCESS:    1807462  HIT:    1759903  MISS:      47559  HIT %:    97.3687  MISS %:    2.63126   MPKI: 0.237795
L2C LOAD TRANSLATION ACCESS:      10826  HIT:       4046  MISS:       6780  HIT %:     37.373  MISS %:     62.627   MPKI: 0.0339
L2C TRANSLATION FROM L1D PREFETCHER ACCESS:       2179  HIT:        961  MISS:       1218  HIT %:    44.1028  MISS %:    55.8972   MPKI: 0.00609
L2C PREFETCH  REQUESTED:          0  ISSUED:          0  USEFUL:       6689  USELESS:      18854
L2C USEFUL LOAD PREFETCHES:       6689 PREFETCH ISSUED TO LOWER LEVEL:      24361  ACCURACY: 27.4578
L2C TIMELY PREFETCHES:       6689 LATE PREFETCHES: 0 DROPPED PREFETCHES: 0
L2C PREFETCHES SAME FILL-ORIGIN LEVEL: 0 DIFFERENT FILL-ORIGIN LEVEL: 0
L2C AVERAGE MISS LATENCY: 30.8252 cycles
L2C RQ	ACCESS:   13327469	FORWARD:          0	MERGED:          0	TO_CACHE:   13327450
L2C WQ	ACCESS:    1807462	FORWARD:         19	MERGED:          0	TO_CACHE:    1807462
L2C PQ	ACCESS:     256474	FORWARD:          0	MERGED:          0	TO_CACHE:     256474

L2C Instructions Evicting Data 294745
L2C Translations Evicting Data 5411
L2C Data Evicting Data 282656
L2C Instructions Evicting Instructions 498201
L2C Translations Evicting Instructions 2261
L2C Data Evicting Instructions 268697
L2C Instructions Evicting Translations 2310
L2C Translations Evicting Translations 326
L2C Data Evicting Translations 5244
L2C Dense regions hint from L2: 0
PSCL5 TOTAL     ACCESS:      11224  HIT:      11224  MISS:          0  HIT %:        100  MISS %:          0   MPKI: 0
PSCL5 LOAD TRANSLATION ACCESS:       9836  HIT:       9836  MISS:          0  HIT %:        100  MISS %:          0   MPKI: 0
PSCL5 TRANSLATION FROM L1D PREFETCHER ACCESS:       1388  HIT:       1388  MISS:          0  HIT %:        100  MISS %:          0   MPKI: 0
PSCL5 PREFETCH  REQUESTED:          0  ISSUED:          0  USEFUL:          0  USELESS:          0
PSCL5 USEFUL LOAD PREFETCHES:          0 PREFETCH ISSUED TO LOWER LEVEL:          0  ACCURACY: -nan
PSCL5 TIMELY PREFETCHES:          0 LATE PREFETCHES: 0 DROPPED PREFETCHES: 0
PSCL5 PREFETCHES SAME FILL-ORIGIN LEVEL: 0 DIFFERENT FILL-ORIGIN LEVEL: 0

PSCL4 TOTAL     ACCESS:      11151  HIT:      11121  MISS:         30  HIT %:     99.731  MISS %:   0.269034   MPKI: 0.00015
PSCL4 LOAD TRANSLATION ACCESS:       9782  HIT:       9752  MISS:         30  HIT %:    99.6933  MISS %:   0.306686   MPKI: 0.00015
PSCL4 TRANSLATION FROM L1D PREFETCHER ACCESS:       1369  HIT:       1369  MISS:          0  HIT %:        100  MISS %:          0   MPKI: 0
PSCL4 PREFETCH  REQUESTED:          0  ISSUED:          0  USEFUL:          0  USELESS:          0
PSCL4 USEFUL LOAD PREFETCHES:          0 PREFETCH ISSUED TO LOWER LEVEL:          0  ACCURACY: -nan
PSCL4 TIMELY PREFETCHES:          0 LATE PREFETCHES: 0 DROPPED PREFETCHES: 0
PSCL4 PREFETCHES SAME FILL-ORIGIN LEVEL: 0 DIFFERENT FILL-ORIGIN LEVEL: 0

PSCL3 TOTAL     ACCESS:      11187  HIT:      11157  MISS:         30  HIT %:    99.7318  MISS %:   0.268168   MPKI: 0.00015
PSCL3 LOAD TRANSLATION ACCESS:       9818  HIT:       9788  MISS:         30  HIT %:    99.6944  MISS %:   0.305561   MPKI: 0.00015
PSCL3 TRANSLATION FROM L1D PREFETCHER ACCESS:       1369  HIT:       1369  MISS:          0  HIT %:        100  MISS %:          0   MPKI: 0
PSCL3 PREFETCH  REQUESTED:          0  ISSUED:          0  USEFUL:          0  USELESS:          0
PSCL3 USEFUL LOAD PREFETCHES:          0 PREFETCH ISSUED TO LOWER LEVEL:          0  ACCURACY: -nan
PSCL3 TIMELY PREFETCHES:          0 LATE PREFETCHES: 0 DROPPED PREFETCHES: 0
PSCL3 PREFETCHES SAME FILL-ORIGIN LEVEL: 0 DIFFERENT FILL-ORIGIN LEVEL: 0

PSCL2 TOTAL     ACCESS:      10284  HIT:       9345  MISS:        939  HIT %:    90.8693  MISS %:    9.13069   MPKI: 0.004695
PSCL2 LOAD TRANSLATION ACCESS:       9845  HIT:       8906  MISS:        939  HIT %:    90.4622  MISS %:    9.53784   MPKI: 0.004695
PSCL2 TRANSLATION FROM L1D PREFETCHER ACCESS:        439  HIT:        439  MISS:          0  HIT %:        100  MISS %:          0   MPKI: 0
PSCL2 PREFETCH  REQUESTED:          0  ISSUED:          0  USEFUL:          0  USELESS:          0
PSCL2 USEFUL LOAD PREFETCHES:          0 PREFETCH ISSUED TO LOWER LEVEL:          0  ACCURACY: -nan
PSCL2 TIMELY PREFETCHES:          0 LATE PREFETCHES: 0 DROPPED PREFETCHES: 0
PSCL2 PREFETCHES SAME FILL-ORIGIN LEVEL: 0 DIFFERENT FILL-ORIGIN LEVEL: 0

LLC TOTAL     ACCESS:    1623970  HIT:    1606016  MISS:      17954  HIT %:    98.8944  MISS %:    1.10556   MPKI: 0.08977
LLC LOAD      ACCESS:    1129145  HIT:    1119088  MISS:      10057  HIT %:    99.1093  MISS %:   0.890674   MPKI: 0.050285
LLC RFO       ACCESS:     198343  HIT:     190918  MISS:       7425  HIT %:    96.2565  MISS %:    3.74352   MPKI: 0.037125
LLC PREFETCH  ACCESS:      24361  HIT:      24134  MISS:        227  HIT %:    99.0682  MISS %:   0.931817   MPKI: 0.001135
AGUS PREFETCH L1 MISS: 0
LLC WRITEBACK ACCESS:     264123  HIT:     264073  MISS:         50  HIT %:    99.9811  MISS %:  0.0189306   MPKI: 0.00025
LLC LOAD TRANSLATION ACCESS:       6780  HIT:       6726  MISS:         54  HIT %:    99.2035  MISS %:    0.79646   MPKI: 0.00027
LLC TRANSLATION FROM L1D PREFETCHER ACCESS:       1218  HIT:       1077  MISS:        141  HIT %:    88.4236  MISS %:    11.5764   MPKI: 0.000705
LLC PREFETCH  REQUESTED:          0  ISSUED:          0  USEFUL:         54  USELESS:         77
LLC USEFUL LOAD PREFETCHES:         54 PREFETCH ISSUED TO LOWER LEVEL:        227  ACCURACY: 23.7885
LLC TIMELY PREFETCHES:         54 LATE PREFETCHES: 0 DROPPED PREFETCHES: 0
LLC PREFETCHES SAME FILL-ORIGIN LEVEL: 0 DIFFERENT FILL-ORIGIN LEVEL: 0
LLC AVERAGE MISS LATENCY: 144.147 cycles
LLC RQ	ACCESS:    1335490	FORWARD:          0	MERGED:          0	TO_CACHE:    1335486
LLC WQ	ACCESS:     264123	FORWARD:          4	MERGED:          0	TO_CACHE:     264123
LLC PQ	ACCESS:      24361	FORWARD:          0	MERGED:          0	TO_CACHE:      24361

LLC Dense regions hint to LLC: 0

RAW hits: 1395870
Loads Generated: 48288798
Loads sent to L1D: 46892928
Stores Generated: 26309148
Stores sent to L1D: 26309150
Major fault: 0 Minor fault: 1865
Allocated PAGES: 1865
Completed 
Accuracy : 90.697
Number of unique groups: 2403383

DRAM Statistics
 CHANNEL 0
 RQ ROW_BUFFER_HIT:       5022  ROW_BUFFER_MISS:      12864
 DBUS_CONGESTED:         24
 WQ ROW_BUFFER_HIT:        611  ROW_BUFFER_MISS:       7794  FULL:          0

 AVG_CONGESTED_CYCLE: 5
 All warmup complete: 2
Channel 0 Bank busy for read cycles: 0
Channel 0 Bank busy for write cycles: 0
Channel 0
Rank 0
0banks busy for read cycles: 594819994
0banks busy for write cycles: 3778
1banks busy for read cycles: 933114
1banks busy for write cycles: 473220
2banks busy for read cycles: 167314
2banks busy for write cycles: 93424
3banks busy for read cycles: 93843
3banks busy for write cycles: 51633
4banks busy for read cycles: 49856
4banks busy for write cycles: 34237
5banks busy for read cycles: 32308
5banks busy for write cycles: 24199
6banks busy for read cycles: 18956
6banks busy for write cycles: 21107
7banks busy for read cycles: 11907
7banks busy for write cycles: 13579
8banks busy for read cycles: 9194
8banks busy for write cycles: 8151

CPU 0 Branch Prediction Accuracy: 99.8462% MPKI: 0.271815 Average ROB Occupancy at Mispredict: 54.4523
Branch types
NOT_BRANCH: 164663070 82.3315%
BRANCH_DIRECT_JUMP: 2183492 1.09175%
BRANCH_INDIRECT: 11409987 5.70499%
BRANCH_CONDITIONAL: 13666237 6.83312%
BRANCH_DIRECT_CALL: 3412328 1.70616%
BRANCH_INDIRECT_CALL: 626274 0.313137%
BRANCH_RETURN: 4038590 2.0193%
BRANCH_OTHER: 0 0%

DRAM PAGES: 1048576
Allocated PAGES: 1865
