
*** ChampSim Multicore Out-of-Order Simulator ***

Warmup Instructions: 50000000
Simulation Instructions: 200000000
Number of CPUs: 1
LLC sets: 2048
LLC ways: 16
Off-chip DRAM Size: 4096 MB Channels: 1 Width: 64-bit Data Rate: 6400 MT/s
CPU 0 runs traces/spec2k17/srv_15.champsimtrace.xz
.xz
BTB has LRU replacement policy
ITLB has LRU replacement policy
DTLB has LRU replacement policy
STLB has LRU replacement policy
L1I has LRU replacement policy
L1D has LRU replacement policy
Initialize SRRIP state for L2C
Initialize DRRIP state for LLC
Heartbeat CPU 0 instructions: 10000002 cycles: 2853384 heartbeat IPC: 3.50461 cumulative IPC: 3.50461 (Simulation time: 0 hr 0 min 48 sec) 
Heartbeat CPU 0 instructions: 20000001 cycles: 5695680 heartbeat IPC: 3.51828 cumulative IPC: 3.51143 (Simulation time: 0 hr 1 min 27 sec) 
Heartbeat CPU 0 instructions: 30000000 cycles: 8537911 heartbeat IPC: 3.51836 cumulative IPC: 3.51374 (Simulation time: 0 hr 2 min 12 sec) 
*** Reached end of trace for Core: 0 Repeating trace: traces/spec2k17/srv_15.champsimtrace.xz
Heartbeat CPU 0 instructions: 40000000 cycles: 11384414 heartbeat IPC: 3.51308 cumulative IPC: 3.51358 (Simulation time: 0 hr 2 min 56 sec) 
Heartbeat CPU 0 instructions: 50000001 cycles: 14227088 heartbeat IPC: 3.51781 cumulative IPC: 3.51442 (Simulation time: 0 hr 3 min 38 sec) 

Warmup complete CPU 0 instructions: 50000001 cycles: 14227088 (Simulation time: 0 hr 3 min 38 sec) 

Heartbeat CPU 0 instructions: 60000000 cycles: 46117200 heartbeat IPC: 0.313577 cumulative IPC: 0.313577 (Simulation time: 0 hr 4 min 39 sec) 
*** Reached end of trace for Core: 0 Repeating trace: traces/spec2k17/srv_15.champsimtrace.xz
Heartbeat CPU 0 instructions: 70000000 cycles: 77995755 heartbeat IPC: 0.313691 cumulative IPC: 0.313634 (Simulation time: 0 hr 5 min 35 sec) 
Heartbeat CPU 0 instructions: 80000001 cycles: 110017731 heartbeat IPC: 0.312286 cumulative IPC: 0.313183 (Simulation time: 0 hr 6 min 38 sec) 
Heartbeat CPU 0 instructions: 90000001 cycles: 141703687 heartbeat IPC: 0.315597 cumulative IPC: 0.313783 (Simulation time: 0 hr 7 min 41 sec) 
*** Reached end of trace for Core: 0 Repeating trace: traces/spec2k17/srv_15.champsimtrace.xz
Heartbeat CPU 0 instructions: 100000002 cycles: 173798075 heartbeat IPC: 0.311581 cumulative IPC: 0.31334 (Simulation time: 0 hr 8 min 43 sec) 
Heartbeat CPU 0 instructions: 110000000 cycles: 205634304 heartbeat IPC: 0.314107 cumulative IPC: 0.313468 (Simulation time: 0 hr 9 min 44 sec) 
Heartbeat CPU 0 instructions: 120000001 cycles: 237308070 heartbeat IPC: 0.315719 cumulative IPC: 0.313787 (Simulation time: 0 hr 10 min 47 sec) 
*** Reached end of trace for Core: 0 Repeating trace: traces/spec2k17/srv_15.champsimtrace.xz
Heartbeat CPU 0 instructions: 130000001 cycles: 269302617 heartbeat IPC: 0.312553 cumulative IPC: 0.313633 (Simulation time: 0 hr 11 min 49 sec) 
Heartbeat CPU 0 instructions: 140000000 cycles: 300835136 heartbeat IPC: 0.317133 cumulative IPC: 0.314018 (Simulation time: 0 hr 12 min 53 sec) 
Heartbeat CPU 0 instructions: 150000003 cycles: 332379507 heartbeat IPC: 0.317014 cumulative IPC: 0.314315 (Simulation time: 0 hr 13 min 59 sec) 
*** Reached end of trace for Core: 0 Repeating trace: traces/spec2k17/srv_15.champsimtrace.xz
Heartbeat CPU 0 instructions: 160000000 cycles: 364146052 heartbeat IPC: 0.314797 cumulative IPC: 0.314359 (Simulation time: 0 hr 15 min 5 sec) 
Heartbeat CPU 0 instructions: 170000001 cycles: 395552548 heartbeat IPC: 0.318406 cumulative IPC: 0.314692 (Simulation time: 0 hr 16 min 11 sec) 
Heartbeat CPU 0 instructions: 180000000 cycles: 427056763 heartbeat IPC: 0.317418 cumulative IPC: 0.3149 (Simulation time: 0 hr 17 min 19 sec) 
*** Reached end of trace for Core: 0 Repeating trace: traces/spec2k17/srv_15.champsimtrace.xz
Heartbeat CPU 0 instructions: 190000003 cycles: 458515462 heartbeat IPC: 0.317877 cumulative IPC: 0.315111 (Simulation time: 0 hr 18 min 27 sec) 
Heartbeat CPU 0 instructions: 200000001 cycles: 490015356 heartbeat IPC: 0.317461 cumulative IPC: 0.315266 (Simulation time: 0 hr 19 min 31 sec) 
Heartbeat CPU 0 instructions: 210000001 cycles: 521381623 heartbeat IPC: 0.318814 cumulative IPC: 0.315486 (Simulation time: 0 hr 20 min 41 sec) 
*** Reached end of trace for Core: 0 Repeating trace: traces/spec2k17/srv_15.champsimtrace.xz
Heartbeat CPU 0 instructions: 220000000 cycles: 552743468 heartbeat IPC: 0.318859 cumulative IPC: 0.315682 (Simulation time: 0 hr 21 min 50 sec) 
Heartbeat CPU 0 instructions: 230000001 cycles: 584268001 heartbeat IPC: 0.317213 cumulative IPC: 0.315767 (Simulation time: 0 hr 22 min 55 sec) 
Heartbeat CPU 0 instructions: 240000001 cycles: 615611179 heartbeat IPC: 0.319049 cumulative IPC: 0.315938 (Simulation time: 0 hr 24 min 6 sec) 
Heartbeat CPU 0 instructions: 250000000 cycles: 647023064 heartbeat IPC: 0.318351 cumulative IPC: 0.316058 (Simulation time: 0 hr 25 min 15 sec) 
Finished CPU 0 instructions: 200000000 cycles: 632795977 cumulative IPC: 0.316058 (Simulation time: 0 hr 25 min 15 sec) 

ChampSim completed all CPUs

Region of Interest Statistics

CPU 0 cumulative IPC: 0.316058 instructions: 200000000 cycles: 632795977
ITLB TOTAL     ACCESS:   35708275  HIT:   33453892  MISS:    2254383  HIT %:    93.6867  MISS %:    6.31333   MPKI: 11.2719
ITLB LOAD TRANSLATION ACCESS:   35708275  HIT:   33453892  MISS:    2254383  HIT %:    93.6867  MISS %:    6.31333   MPKI: 11.2719
ITLB PREFETCH  REQUESTED:          0  ISSUED:          0  USEFUL:          0  USELESS:          0
ITLB USEFUL LOAD PREFETCHES:          0 PREFETCH ISSUED TO LOWER LEVEL:          0  ACCURACY: -nan
ITLB TIMELY PREFETCHES:          0 LATE PREFETCHES: 0 DROPPED PREFETCHES: 0
ITLB PREFETCHES SAME FILL-ORIGIN LEVEL: 0 DIFFERENT FILL-ORIGIN LEVEL: 0
ITLB AVERAGE MISS LATENCY: 9.20517 cycles
ITLB RQ	ACCESS:   41944687	FORWARD:          0	MERGED:    5689090	TO_CACHE:   36255597

DTLB TOTAL     ACCESS:   45739922  HIT:   43701037  MISS:    2038885  HIT %:    95.5424  MISS %:    4.45756   MPKI: 10.1944
DTLB LOAD TRANSLATION ACCESS:   45739922  HIT:   43701037  MISS:    2038885  HIT %:    95.5424  MISS %:    4.45756   MPKI: 10.1944
DTLB PREFETCH  REQUESTED:          0  ISSUED:          0  USEFUL:          0  USELESS:          0
DTLB USEFUL LOAD PREFETCHES:          0 PREFETCH ISSUED TO LOWER LEVEL:          0  ACCURACY: -nan
DTLB TIMELY PREFETCHES:          0 LATE PREFETCHES: 0 DROPPED PREFETCHES: 0
DTLB PREFETCHES SAME FILL-ORIGIN LEVEL: 0 DIFFERENT FILL-ORIGIN LEVEL: 0
DTLB AVERAGE MISS LATENCY: 8.9289 cycles
DTLB RQ	ACCESS:   60507320	FORWARD:          0	MERGED:   14708206	TO_CACHE:   45799114

STLB TOTAL     ACCESS:   10666326  HIT:   10638367  MISS:      27959  HIT %:    99.7379  MISS %:   0.262124   MPKI: 0.139795
STLB LOAD TRANSLATION ACCESS:    4293268  HIT:    4266620  MISS:      26648  HIT %:    99.3793  MISS %:   0.620693   MPKI: 0.13324
STLB TRANSLATION FROM L1D PREFETCHER ACCESS:    6373058  HIT:    6371747  MISS:       1311  HIT %:    99.9794  MISS %:   0.020571   MPKI: 0.006555
STLB PREFETCH  REQUESTED:          0  ISSUED:          0  USEFUL:       1309  USELESS:          2
STLB USEFUL LOAD PREFETCHES:       1309 PREFETCH ISSUED TO LOWER LEVEL:          0  ACCURACY: inf
STLB TIMELY PREFETCHES:       1309 LATE PREFETCHES: 413 DROPPED PREFETCHES: 5054
STLB PREFETCHES SAME FILL-ORIGIN LEVEL: 0 DIFFERENT FILL-ORIGIN LEVEL: 0
STLB AVERAGE MISS LATENCY: 30.5444 cycles
STLB RQ	ACCESS:   12780892	FORWARD:          0	MERGED:    2109034	TO_CACHE:   10671858

STLB Hit, L1D data hit: 0
STLB Hit, L2C data hit: 0
STLB Hit, LLC data hit: 0
STLB Hit, LLC data miss: 0
STLB STLB hints to L2: 0
L1D TOTAL     ACCESS:   66221341  HIT:   60700844  MISS:    5520497  HIT %:    91.6636  MISS %:    8.33643   MPKI: 27.6025
L1D LOAD      ACCESS:   33940638  HIT:   30500164  MISS:    3440474  HIT %:    89.8633  MISS %:    10.1367   MPKI: 17.2024
L1D RFO       ACCESS:   24701964  HIT:   23511350  MISS:    1190614  HIT %:    95.1801  MISS %:    4.81992   MPKI: 5.95307
L1D PREFETCH  ACCESS:    7578739  HIT:    6689330  MISS:     889409  HIT %:    88.2644  MISS %:    11.7356   MPKI: 4.44705
AGUS PREFETCH L1 MISS: 0
L1D PREFETCH  REQUESTED:   17591016  ISSUED:   17591016  USEFUL:     859123  USELESS:      30260
L1D USEFUL LOAD PREFETCHES:     859123 PREFETCH ISSUED TO LOWER LEVEL:    1476057  ACCURACY: 58.2039
L1D TIMELY PREFETCHES:     859123 LATE PREFETCHES: 584387 DROPPED PREFETCHES: 5424
L1D PREFETCHES SAME FILL-ORIGIN LEVEL: 1476057 DIFFERENT FILL-ORIGIN LEVEL: 0
L1D AVERAGE MISS LATENCY: 3.96936e+07 cycles
L1D RQ	ACCESS:   46495927	FORWARD:          0	MERGED:   12104336	TO_CACHE:   34067337
L1D WQ	ACCESS:   26586297	FORWARD:     337955	MERGED:     146314	TO_CACHE:   26439983
L1D PQ	ACCESS:    9103392	FORWARD:          0	MERGED:     602067	TO_CACHE:    8487624

L1D UNIQUE REGIONS ACCESSED: 0
L1D REGIONS CONFLICTS: 0
L1D Cross Page Prefetch Requests: 5999637
L1D Same Page Prefetch Requests: 3349773
L1D ROI Sum of L1D PQ occupancy: 117181065
L1D PREFETCHES PUSHED FROM L2C: 0
L1I TOTAL     ACCESS:   40220183  HIT:   28776305  MISS:   11443878  HIT %:    71.5469  MISS %:    28.4531   MPKI: 57.2194
L1I LOAD      ACCESS:   40220183  HIT:   28776305  MISS:   11443878  HIT %:    71.5469  MISS %:    28.4531   MPKI: 57.2194
L1I PREFETCH  REQUESTED:          0  ISSUED:          0  USEFUL:          0  USELESS:          0
L1I USEFUL LOAD PREFETCHES:          0 PREFETCH ISSUED TO LOWER LEVEL:          0  ACCURACY: -nan
L1I TIMELY PREFETCHES:          0 LATE PREFETCHES: 0 DROPPED PREFETCHES: 0
L1I PREFETCHES SAME FILL-ORIGIN LEVEL: 0 DIFFERENT FILL-ORIGIN LEVEL: 0
L1I AVERAGE MISS LATENCY: 15.5695 cycles
L1I RQ	ACCESS:   58612037	FORWARD:          0	MERGED:   16667350	TO_CACHE:   41944687

BTB TOTAL     ACCESS:   30711821  HIT:   18461256  MISS:   12250565  HIT %:    60.1112  MISS %:    39.8888   MPKI: 61.2528
BTB BRANCH_DIRECT_JUMP	ACCESS:    1879118  HIT:    1082631  MISS:     796487
BTB BRANCH_INDIRECT	ACCESS:   12151413  HIT:    7482073  MISS:    4669340
BTB BRANCH_CONDITIONAL	ACCESS:    7502010  HIT:    6260751  MISS:    1241259
BTB BRANCH_DIRECT_CALL	ACCESS:    3871933  HIT:    1894091  MISS:    1977842
BTB BRANCH_INDIRECT_CALL	ACCESS:     717697  HIT:     351527  MISS:     366170
BTB BRANCH_RETURN	ACCESS:    4589650  HIT:    1390183  MISS:    3199467
BTB BRANCH_OTHER ACCESS:          0  HIT:          0  MISS:          0

L2C TOTAL     ACCESS:   19313057  HIT:   18317710  MISS:     995347  HIT %:    94.8462  MISS %:    5.15375   MPKI: 4.97673
L2C LOAD      ACCESS:   14299965  HIT:   13493842  MISS:     806123  HIT %:    94.3628  MISS %:    5.63724   MPKI: 4.03062
L2C DATA LOAD MPKI: 1.18043
L2C INSTRUCTION LOAD MPKI: 2.85019
L2C RFO       ACCESS:    1188346  HIT:    1129689  MISS:      58657  HIT %:     95.064  MISS %:    4.93602   MPKI: 0.293285
L2C PREFETCH  ACCESS:    1476056  HIT:    1379955  MISS:      96101  HIT %:    93.4893  MISS %:    6.51066   MPKI: 0.480505
AGUS PREFETCH L1 MISS: 0
L2C DATA PREFETCH MPKI: 0.480505
L2C INSTRUCTION PREFETCH MPKI: 0
L2C WRITEBACK ACCESS:    2311848  HIT:    2288408  MISS:      23440  HIT %:    98.9861  MISS %:    1.01391   MPKI: 0.1172
L2C LOAD TRANSLATION ACCESS:      27236  HIT:      17237  MISS:       9999  HIT %:    63.2876  MISS %:    36.7124   MPKI: 0.049995
L2C TRANSLATION FROM L1D PREFETCHER ACCESS:       9606  HIT:       8579  MISS:       1027  HIT %:    89.3088  MISS %:    10.6912   MPKI: 0.005135
L2C PREFETCH  REQUESTED:          0  ISSUED:          0  USEFUL:       9287  USELESS:      87754
L2C USEFUL LOAD PREFETCHES:       9287 PREFETCH ISSUED TO LOWER LEVEL:      96101  ACCURACY: 9.66379
L2C TIMELY PREFETCHES:       9287 LATE PREFETCHES: 0 DROPPED PREFETCHES: 0
L2C PREFETCHES SAME FILL-ORIGIN LEVEL: 0 DIFFERENT FILL-ORIGIN LEVEL: 0
L2C AVERAGE MISS LATENCY: 29.6724 cycles
L2C RQ	ACCESS:   15525160	FORWARD:          0	MERGED:          0	TO_CACHE:   15525153
L2C WQ	ACCESS:    2311848	FORWARD:          8	MERGED:          0	TO_CACHE:    2311848
L2C PQ	ACCESS:    1476057	FORWARD:          0	MERGED:          0	TO_CACHE:    1476056

L2C Instructions Evicting Data 228948
L2C Translations Evicting Data 5515
L2C Data Evicting Data 172600
L2C Instructions Evicting Instructions 335942
L2C Translations Evicting Instructions 5344
L2C Data Evicting Instructions 212679
L2C Instructions Evicting Translations 5147
L2C Translations Evicting Translations 167
L2C Data Evicting Translations 5564
L2C Dense regions hint from L2: 0
PSCL5 TOTAL     ACCESS:      33011  HIT:      33011  MISS:          0  HIT %:        100  MISS %:          0   MPKI: 0
PSCL5 LOAD TRANSLATION ACCESS:      26235  HIT:      26235  MISS:          0  HIT %:        100  MISS %:          0   MPKI: 0
PSCL5 TRANSLATION FROM L1D PREFETCHER ACCESS:       6776  HIT:       6776  MISS:          0  HIT %:        100  MISS %:          0   MPKI: 0
PSCL5 PREFETCH  REQUESTED:          0  ISSUED:          0  USEFUL:          0  USELESS:          0
PSCL5 USEFUL LOAD PREFETCHES:          0 PREFETCH ISSUED TO LOWER LEVEL:          0  ACCURACY: -nan
PSCL5 TIMELY PREFETCHES:          0 LATE PREFETCHES: 0 DROPPED PREFETCHES: 0
PSCL5 PREFETCHES SAME FILL-ORIGIN LEVEL: 0 DIFFERENT FILL-ORIGIN LEVEL: 0

PSCL4 TOTAL     ACCESS:      28723  HIT:      28635  MISS:         88  HIT %:    99.6936  MISS %:   0.306375   MPKI: 0.00044
PSCL4 LOAD TRANSLATION ACCESS:      23021  HIT:      22933  MISS:         88  HIT %:    99.6177  MISS %:    0.38226   MPKI: 0.00044
PSCL4 TRANSLATION FROM L1D PREFETCHER ACCESS:       5702  HIT:       5702  MISS:          0  HIT %:        100  MISS %:          0   MPKI: 0
PSCL4 PREFETCH  REQUESTED:          0  ISSUED:          0  USEFUL:          0  USELESS:          0
PSCL4 USEFUL LOAD PREFETCHES:          0 PREFETCH ISSUED TO LOWER LEVEL:          0  ACCURACY: -nan
PSCL4 TIMELY PREFETCHES:          0 LATE PREFETCHES: 0 DROPPED PREFETCHES: 0
PSCL4 PREFETCHES SAME FILL-ORIGIN LEVEL: 0 DIFFERENT FILL-ORIGIN LEVEL: 0

PSCL3 TOTAL     ACCESS:      30253  HIT:      30165  MISS:         88  HIT %:    99.7091  MISS %:    0.29088   MPKI: 0.00044
PSCL3 LOAD TRANSLATION ACCESS:      24061  HIT:      23973  MISS:         88  HIT %:    99.6343  MISS %:   0.365737   MPKI: 0.00044
PSCL3 TRANSLATION FROM L1D PREFETCHER ACCESS:       6192  HIT:       6192  MISS:          0  HIT %:        100  MISS %:          0   MPKI: 0
PSCL3 PREFETCH  REQUESTED:          0  ISSUED:          0  USEFUL:          0  USELESS:          0
PSCL3 USEFUL LOAD PREFETCHES:          0 PREFETCH ISSUED TO LOWER LEVEL:          0  ACCURACY: -nan
PSCL3 TIMELY PREFETCHES:          0 LATE PREFETCHES: 0 DROPPED PREFETCHES: 0
PSCL3 PREFETCHES SAME FILL-ORIGIN LEVEL: 0 DIFFERENT FILL-ORIGIN LEVEL: 0

PSCL2 TOTAL     ACCESS:      29997  HIT:      29083  MISS:        914  HIT %:     96.953  MISS %:    3.04697   MPKI: 0.00457
PSCL2 LOAD TRANSLATION ACCESS:      26320  HIT:      25406  MISS:        914  HIT %:    96.5274  MISS %:    3.47264   MPKI: 0.00457
PSCL2 TRANSLATION FROM L1D PREFETCHER ACCESS:       3677  HIT:       3677  MISS:          0  HIT %:        100  MISS %:          0   MPKI: 0
PSCL2 PREFETCH  REQUESTED:          0  ISSUED:          0  USEFUL:          0  USELESS:          0
PSCL2 USEFUL LOAD PREFETCHES:          0 PREFETCH ISSUED TO LOWER LEVEL:          0  ACCURACY: -nan
PSCL2 TIMELY PREFETCHES:          0 LATE PREFETCHES: 0 DROPPED PREFETCHES: 0
PSCL2 PREFETCHES SAME FILL-ORIGIN LEVEL: 0 DIFFERENT FILL-ORIGIN LEVEL: 0

LLC TOTAL     ACCESS:    1062617  HIT:    1060192  MISS:       2425  HIT %:    99.7718  MISS %:    0.22821   MPKI: 0.012125
LLC LOAD      ACCESS:     806123  HIT:     804872  MISS:       1251  HIT %:    99.8448  MISS %:   0.155187   MPKI: 0.006255
LLC RFO       ACCESS:      58656  HIT:      58553  MISS:        103  HIT %:    99.8244  MISS %:     0.1756   MPKI: 0.000515
LLC PREFETCH  ACCESS:      96101  HIT:      95176  MISS:        925  HIT %:    99.0375  MISS %:   0.962529   MPKI: 0.004625
AGUS PREFETCH L1 MISS: 0
LLC WRITEBACK ACCESS:      90711  HIT:      90700  MISS:         11  HIT %:    99.9879  MISS %:  0.0121264   MPKI: 5.5e-05
LLC LOAD TRANSLATION ACCESS:       9999  HIT:       9971  MISS:         28  HIT %:      99.72  MISS %:   0.280028   MPKI: 0.00014
LLC TRANSLATION FROM L1D PREFETCHER ACCESS:       1027  HIT:        920  MISS:        107  HIT %:    89.5813  MISS %:    10.4187   MPKI: 0.000535
LLC PREFETCH  REQUESTED:          0  ISSUED:          0  USEFUL:        567  USELESS:        277
LLC USEFUL LOAD PREFETCHES:        567 PREFETCH ISSUED TO LOWER LEVEL:        925  ACCURACY: 61.2973
LLC TIMELY PREFETCHES:        567 LATE PREFETCHES: 0 DROPPED PREFETCHES: 0
LLC PREFETCHES SAME FILL-ORIGIN LEVEL: 0 DIFFERENT FILL-ORIGIN LEVEL: 0
LLC AVERAGE MISS LATENCY: 155.537 cycles
LLC RQ	ACCESS:     875806	FORWARD:          0	MERGED:          0	TO_CACHE:     875805
LLC WQ	ACCESS:      90711	FORWARD:          1	MERGED:          0	TO_CACHE:      90711
LLC PQ	ACCESS:      96101	FORWARD:          0	MERGED:          0	TO_CACHE:      96101

LLC Dense regions hint to LLC: 0

RAW hits: 1472979
Loads Generated: 47968906
Loads sent to L1D: 46495927
Stores Generated: 26586297
Stores sent to L1D: 26586297
Major fault: 0 Minor fault: 1825
Allocated PAGES: 1825
Completed 
Accuracy : 91.4013
Number of unique groups: 1594341

DRAM Statistics
 CHANNEL 0
 RQ ROW_BUFFER_HIT:        356  ROW_BUFFER_MISS:       2058
 DBUS_CONGESTED:          0
 WQ ROW_BUFFER_HIT:         12  ROW_BUFFER_MISS:        124  FULL:          0

 AVG_CONGESTED_CYCLE: -
 All warmup complete: 2
Channel 0 Bank busy for read cycles: 0
Channel 0 Bank busy for write cycles: 0
Channel 0
Rank 0
0banks busy for read cycles: 632507643
0banks busy for write cycles: 117
1banks busy for read cycles: 227843
1banks busy for write cycles: 15517
2banks busy for read cycles: 32069
2banks busy for write cycles: 1753
3banks busy for read cycles: 7842
3banks busy for write cycles: 529
4banks busy for read cycles: 2332
4banks busy for write cycles: 0
5banks busy for read cycles: 333
5banks busy for write cycles: 0
6banks busy for read cycles: 0
6banks busy for write cycles: 0
7banks busy for read cycles: 0
7banks busy for write cycles: 0
8banks busy for read cycles: 0
8banks busy for write cycles: 0

CPU 0 Branch Prediction Accuracy: 99.883% MPKI: 0.21111 Average ROB Occupancy at Mispredict: 28.8057
Branch types
NOT_BRANCH: 163917785 81.9589%
BRANCH_DIRECT_JUMP: 1879118 0.939559%
BRANCH_INDIRECT: 12151413 6.07571%
BRANCH_CONDITIONAL: 12872310 6.43616%
BRANCH_DIRECT_CALL: 3871933 1.93597%
BRANCH_INDIRECT_CALL: 717697 0.358849%
BRANCH_RETURN: 4589650 2.29482%
BRANCH_OTHER: 0 0%

DRAM PAGES: 1048576
Allocated PAGES: 1825
