
*** ChampSim Multicore Out-of-Order Simulator ***

Warmup Instructions: 50000000
Simulation Instructions: 200000000
Number of CPUs: 1
LLC sets: 2048
LLC ways: 16
Off-chip DRAM Size: 4096 MB Channels: 1 Width: 64-bit Data Rate: 6400 MT/s
CPU 0 runs traces/spec2k17/srv_75.champsimtrace.xz
.xz
BTB has LRU replacement policy
ITLB has LRU replacement policy
DTLB has LRU replacement policy
STLB has LRU replacement policy
L1I has LRU replacement policy
L1D has LRU replacement policy
Initialize SRRIP state for L2C
Initialize DRRIP state for LLC
Heartbeat CPU 0 instructions: 10000003 cycles: 2944170 heartbeat IPC: 3.39654 cumulative IPC: 3.39654 (Simulation time: 0 hr 0 min 40 sec) 
Heartbeat CPU 0 instructions: 20000002 cycles: 5879135 heartbeat IPC: 3.4072 cumulative IPC: 3.40186 (Simulation time: 0 hr 1 min 43 sec) 
Heartbeat CPU 0 instructions: 30000001 cycles: 8820301 heartbeat IPC: 3.40001 cumulative IPC: 3.40124 (Simulation time: 0 hr 2 min 23 sec) 
*** Reached end of trace for Core: 0 Repeating trace: traces/spec2k17/srv_75.champsimtrace.xz
Heartbeat CPU 0 instructions: 40000000 cycles: 11760277 heartbeat IPC: 3.40139 cumulative IPC: 3.40128 (Simulation time: 0 hr 2 min 58 sec) 
Heartbeat CPU 0 instructions: 50000001 cycles: 14699701 heartbeat IPC: 3.40203 cumulative IPC: 3.40143 (Simulation time: 0 hr 3 min 56 sec) 

Warmup complete CPU 0 instructions: 50000001 cycles: 14699701 (Simulation time: 0 hr 3 min 56 sec) 

Heartbeat CPU 0 instructions: 60000003 cycles: 34632855 heartbeat IPC: 0.501677 cumulative IPC: 0.501677 (Simulation time: 0 hr 5 min 2 sec) 
*** Reached end of trace for Core: 0 Repeating trace: traces/spec2k17/srv_75.champsimtrace.xz
Heartbeat CPU 0 instructions: 70000000 cycles: 54480976 heartbeat IPC: 0.503826 cumulative IPC: 0.502749 (Simulation time: 0 hr 6 min 37 sec) 
Heartbeat CPU 0 instructions: 80000000 cycles: 74342347 heartbeat IPC: 0.50349 cumulative IPC: 0.502996 (Simulation time: 0 hr 7 min 53 sec) 
Heartbeat CPU 0 instructions: 90000002 cycles: 94124594 heartbeat IPC: 0.505504 cumulative IPC: 0.50362 (Simulation time: 0 hr 8 min 54 sec) 
*** Reached end of trace for Core: 0 Repeating trace: traces/spec2k17/srv_75.champsimtrace.xz
Heartbeat CPU 0 instructions: 100000000 cycles: 113949710 heartbeat IPC: 0.504411 cumulative IPC: 0.503778 (Simulation time: 0 hr 9 min 49 sec) 
Heartbeat CPU 0 instructions: 110000000 cycles: 133824220 heartbeat IPC: 0.503157 cumulative IPC: 0.503675 (Simulation time: 0 hr 10 min 46 sec) 
Heartbeat CPU 0 instructions: 120000000 cycles: 153614436 heartbeat IPC: 0.5053 cumulative IPC: 0.503906 (Simulation time: 0 hr 11 min 39 sec) 
*** Reached end of trace for Core: 0 Repeating trace: traces/spec2k17/srv_75.champsimtrace.xz
Heartbeat CPU 0 instructions: 130000002 cycles: 173390598 heartbeat IPC: 0.505659 cumulative IPC: 0.504125 (Simulation time: 0 hr 12 min 46 sec) 
Heartbeat CPU 0 instructions: 140000000 cycles: 193222915 heartbeat IPC: 0.504227 cumulative IPC: 0.504136 (Simulation time: 0 hr 13 min 45 sec) 
Heartbeat CPU 0 instructions: 150000001 cycles: 212989138 heartbeat IPC: 0.505914 cumulative IPC: 0.504313 (Simulation time: 0 hr 14 min 39 sec) 
Heartbeat CPU 0 instructions: 160000000 cycles: 232758869 heartbeat IPC: 0.505824 cumulative IPC: 0.50445 (Simulation time: 0 hr 15 min 40 sec) 
*** Reached end of trace for Core: 0 Repeating trace: traces/spec2k17/srv_75.champsimtrace.xz
Heartbeat CPU 0 instructions: 170000001 cycles: 252466478 heartbeat IPC: 0.507418 cumulative IPC: 0.504696 (Simulation time: 0 hr 16 min 44 sec) 
Heartbeat CPU 0 instructions: 180000002 cycles: 272288499 heartbeat IPC: 0.504489 cumulative IPC: 0.50468 (Simulation time: 0 hr 17 min 55 sec) 
Heartbeat CPU 0 instructions: 190000000 cycles: 292032396 heartbeat IPC: 0.506486 cumulative IPC: 0.504809 (Simulation time: 0 hr 18 min 45 sec) 
*** Reached end of trace for Core: 0 Repeating trace: traces/spec2k17/srv_75.champsimtrace.xz
Heartbeat CPU 0 instructions: 200000002 cycles: 311773946 heartbeat IPC: 0.506546 cumulative IPC: 0.504924 (Simulation time: 0 hr 19 min 30 sec) 
Heartbeat CPU 0 instructions: 210000000 cycles: 331550467 heartbeat IPC: 0.50565 cumulative IPC: 0.50497 (Simulation time: 0 hr 20 min 12 sec) 
Heartbeat CPU 0 instructions: 220000000 cycles: 351272896 heartbeat IPC: 0.507037 cumulative IPC: 0.505091 (Simulation time: 0 hr 20 min 53 sec) 
*** Reached end of trace for Core: 0 Repeating trace: traces/spec2k17/srv_75.champsimtrace.xz
Heartbeat CPU 0 instructions: 230000003 cycles: 370980212 heartbeat IPC: 0.507426 cumulative IPC: 0.50522 (Simulation time: 0 hr 21 min 31 sec) 
Heartbeat CPU 0 instructions: 240000000 cycles: 390776169 heartbeat IPC: 0.505153 cumulative IPC: 0.505216 (Simulation time: 0 hr 22 min 9 sec) 
Heartbeat CPU 0 instructions: 250000002 cycles: 410531180 heartbeat IPC: 0.506201 cumulative IPC: 0.505266 (Simulation time: 0 hr 22 min 47 sec) 
Finished CPU 0 instructions: 200000001 cycles: 395831479 cumulative IPC: 0.505266 (Simulation time: 0 hr 22 min 47 sec) 

ChampSim completed all CPUs

Region of Interest Statistics

CPU 0 cumulative IPC: 0.505266 instructions: 200000001 cycles: 395831479
ITLB TOTAL     ACCESS:   33772888  HIT:   32236145  MISS:    1536743  HIT %:    95.4498  MISS %:    4.55023   MPKI: 7.68371
ITLB LOAD TRANSLATION ACCESS:   33772888  HIT:   32236145  MISS:    1536743  HIT %:    95.4498  MISS %:    4.55023   MPKI: 7.68371
ITLB PREFETCH  REQUESTED:          0  ISSUED:          0  USEFUL:          0  USELESS:          0
ITLB USEFUL LOAD PREFETCHES:          0 PREFETCH ISSUED TO LOWER LEVEL:          0  ACCURACY: -nan
ITLB TIMELY PREFETCHES:          0 LATE PREFETCHES: 0 DROPPED PREFETCHES: 0
ITLB PREFETCHES SAME FILL-ORIGIN LEVEL: 0 DIFFERENT FILL-ORIGIN LEVEL: 0
ITLB AVERAGE MISS LATENCY: 9.18046 cycles
ITLB RQ	ACCESS:   40664010	FORWARD:          0	MERGED:    6395752	TO_CACHE:   34268258

DTLB TOTAL     ACCESS:   39979558  HIT:   38455976  MISS:    1523582  HIT %:    96.1891  MISS %:     3.8109   MPKI: 7.61791
DTLB LOAD TRANSLATION ACCESS:   39979558  HIT:   38455976  MISS:    1523582  HIT %:    96.1891  MISS %:     3.8109   MPKI: 7.61791
DTLB PREFETCH  REQUESTED:          0  ISSUED:          0  USEFUL:          0  USELESS:          0
DTLB USEFUL LOAD PREFETCHES:          0 PREFETCH ISSUED TO LOWER LEVEL:          0  ACCURACY: -nan
DTLB TIMELY PREFETCHES:          0 LATE PREFETCHES: 0 DROPPED PREFETCHES: 0
DTLB PREFETCHES SAME FILL-ORIGIN LEVEL: 0 DIFFERENT FILL-ORIGIN LEVEL: 0
DTLB AVERAGE MISS LATENCY: 13.772 cycles
DTLB RQ	ACCESS:   61154360	FORWARD:          0	MERGED:   20780939	TO_CACHE:   40373421

STLB TOTAL     ACCESS:    4407971  HIT:    4332720  MISS:      75251  HIT %:    98.2928  MISS %:    1.70716   MPKI: 0.376255
STLB LOAD TRANSLATION ACCESS:    3060325  HIT:    2985077  MISS:      75248  HIT %:    97.5412  MISS %:    2.45882   MPKI: 0.37624
STLB TRANSLATION FROM L1D PREFETCHER ACCESS:    1347646  HIT:    1347643  MISS:          3  HIT %:    99.9998  MISS %: 0.00022261   MPKI: 1.5e-05
STLB PREFETCH  REQUESTED:          0  ISSUED:          0  USEFUL:          3  USELESS:          0
STLB USEFUL LOAD PREFETCHES:          3 PREFETCH ISSUED TO LOWER LEVEL:          0  ACCURACY: inf
STLB TIMELY PREFETCHES:          3 LATE PREFETCHES: 35 DROPPED PREFETCHES: 660
STLB PREFETCHES SAME FILL-ORIGIN LEVEL: 0 DIFFERENT FILL-ORIGIN LEVEL: 0
STLB AVERAGE MISS LATENCY: 101.129 cycles
STLB RQ	ACCESS:    4893568	FORWARD:          0	MERGED:     484902	TO_CACHE:    4408666

STLB Hit, L1D data hit: 0
STLB Hit, L2C data hit: 0
STLB Hit, LLC data hit: 0
STLB Hit, LLC data miss: 0
STLB STLB hints to L2: 0
L1D TOTAL     ACCESS:   50937717  HIT:   44149387  MISS:    6788330  HIT %:    86.6733  MISS %:    13.3267   MPKI: 33.9416
L1D LOAD      ACCESS:   26613744  HIT:   23552114  MISS:    3061630  HIT %:    88.4961  MISS %:    11.5039   MPKI: 15.3081
L1D RFO       ACCESS:   22557814  HIT:   18839645  MISS:    3718169  HIT %:    83.5172  MISS %:    16.4828   MPKI: 18.5908
L1D PREFETCH  ACCESS:    1766159  HIT:    1757628  MISS:       8531  HIT %:     99.517  MISS %:   0.483026   MPKI: 0.042655
AGUS PREFETCH L1 MISS: 0
L1D PREFETCH  REQUESTED:    3753219  ISSUED:    3753169  USEFUL:       6995  USELESS:       1536
L1D USEFUL LOAD PREFETCHES:       6995 PREFETCH ISSUED TO LOWER LEVEL:      20278  ACCURACY: 34.4955
L1D TIMELY PREFETCHES:       6995 LATE PREFETCHES: 11733 DROPPED PREFETCHES: 872
L1D PREFETCHES SAME FILL-ORIGIN LEVEL: 20278 DIFFERENT FILL-ORIGIN LEVEL: 0
L1D AVERAGE MISS LATENCY: 429253 cycles
L1D RQ	ACCESS:   45248087	FORWARD:          0	MERGED:   17874107	TO_CACHE:   27091888
L1D WQ	ACCESS:   34266000	FORWARD:     300461	MERGED:     203528	TO_CACHE:   34062472
L1D PQ	ACCESS:    1919926	FORWARD:          0	MERGED:      68314	TO_CACHE:    1833243

L1D UNIQUE REGIONS ACCESSED: 0
L1D REGIONS CONFLICTS: 0
L1D Cross Page Prefetch Requests: 1320579
L1D Same Page Prefetch Requests: 631585
L1D ROI Sum of L1D PQ occupancy: 25772766
L1D PREFETCHES PUSHED FROM L2C: 0
L1I TOTAL     ACCESS:   38018557  HIT:   28965132  MISS:    9053425  HIT %:    76.1868  MISS %:    23.8132   MPKI: 45.2671
L1I LOAD      ACCESS:   38018557  HIT:   28965132  MISS:    9053425  HIT %:    76.1868  MISS %:    23.8132   MPKI: 45.2671
L1I PREFETCH  REQUESTED:          0  ISSUED:          0  USEFUL:          0  USELESS:          0
L1I USEFUL LOAD PREFETCHES:          0 PREFETCH ISSUED TO LOWER LEVEL:          0  ACCURACY: -nan
L1I TIMELY PREFETCHES:          0 LATE PREFETCHES: 0 DROPPED PREFETCHES: 0
L1I PREFETCHES SAME FILL-ORIGIN LEVEL: 0 DIFFERENT FILL-ORIGIN LEVEL: 0
L1I AVERAGE MISS LATENCY: 16.4417 cycles
L1I RQ	ACCESS:   58988292	FORWARD:          0	MERGED:   18324282	TO_CACHE:   40664010

BTB TOTAL     ACCESS:   25661075  HIT:   24120507  MISS:    1540568  HIT %:    93.9965  MISS %:    6.00352   MPKI: 7.70284
BTB BRANCH_DIRECT_JUMP	ACCESS:    1658498  HIT:    1648884  MISS:       9614
BTB BRANCH_INDIRECT	ACCESS:    9965680  HIT:    9453518  MISS:     512162
BTB BRANCH_CONDITIONAL	ACCESS:    7213546  HIT:    7200102  MISS:      13444
BTB BRANCH_DIRECT_CALL	ACCESS:    2819430  HIT:    2786168  MISS:      33262
BTB BRANCH_INDIRECT_CALL	ACCESS:     592212  HIT:     481174  MISS:     111038
BTB BRANCH_RETURN	ACCESS:    3411709  HIT:    2550661  MISS:     861048
BTB BRANCH_OTHER ACCESS:          0  HIT:          0  MISS:          0

L2C TOTAL     ACCESS:   20291190  HIT:   13690624  MISS:    6600566  HIT %:    67.4708  MISS %:    32.5292   MPKI: 33.0028
L2C LOAD      ACCESS:   12103222  HIT:    9231474  MISS:    2871748  HIT %:    76.2729  MISS %:    23.7271   MPKI: 14.3587
L2C DATA LOAD MPKI: 11.6053
L2C INSTRUCTION LOAD MPKI: 2.75339
L2C RFO       ACCESS:    3718152  HIT:     172935  MISS:    3545217  HIT %:     4.6511  MISS %:    95.3489   MPKI: 17.7261
L2C PREFETCH  ACCESS:      20251  HIT:      15755  MISS:       4496  HIT %:    77.7986  MISS %:    22.2014   MPKI: 0.02248
AGUS PREFETCH L1 MISS: 0
L2C DATA PREFETCH MPKI: 0.02248
L2C INSTRUCTION PREFETCH MPKI: 0
L2C WRITEBACK ACCESS:    4366516  HIT:    4223443  MISS:     143073  HIT %:    96.7234  MISS %:    3.27659   MPKI: 0.715365
L2C LOAD TRANSLATION ACCESS:      81941  HIT:      46819  MISS:      35122  HIT %:    57.1375  MISS %:    42.8625   MPKI: 0.17561
L2C TRANSLATION FROM L1D PREFETCHER ACCESS:       1108  HIT:        198  MISS:        910  HIT %:      17.87  MISS %:      82.13   MPKI: 0.00455
L2C PREFETCH  REQUESTED:          0  ISSUED:          0  USEFUL:        669  USELESS:       4736
L2C USEFUL LOAD PREFETCHES:        669 PREFETCH ISSUED TO LOWER LEVEL:       4496  ACCURACY: 14.8799
L2C TIMELY PREFETCHES:        669 LATE PREFETCHES: 0 DROPPED PREFETCHES: 0
L2C PREFETCHES SAME FILL-ORIGIN LEVEL: 0 DIFFERENT FILL-ORIGIN LEVEL: 0
L2C AVERAGE MISS LATENCY: 159.509 cycles
L2C RQ	ACCESS:   15904529	FORWARD:          0	MERGED:          0	TO_CACHE:   15904427
L2C WQ	ACCESS:    4366516	FORWARD:        129	MERGED:          0	TO_CACHE:    4366516
L2C PQ	ACCESS:      20278	FORWARD:          0	MERGED:          0	TO_CACHE:      20251

L2C Instructions Evicting Data 502332
L2C Translations Evicting Data 32513
L2C Data Evicting Data 5347283
L2C Instructions Evicting Instructions 44885
L2C Translations Evicting Instructions 3373
L2C Data Evicting Instructions 491646
L2C Instructions Evicting Translations 3462
L2C Translations Evicting Translations 146
L2C Data Evicting Translations 31853
L2C Dense regions hint from L2: 0
PSCL5 TOTAL     ACCESS:      75869  HIT:      75869  MISS:          0  HIT %:        100  MISS %:          0   MPKI: 0
PSCL5 LOAD TRANSLATION ACCESS:      75213  HIT:      75213  MISS:          0  HIT %:        100  MISS %:          0   MPKI: 0
PSCL5 TRANSLATION FROM L1D PREFETCHER ACCESS:        656  HIT:        656  MISS:          0  HIT %:        100  MISS %:          0   MPKI: 0
PSCL5 PREFETCH  REQUESTED:          0  ISSUED:          0  USEFUL:          0  USELESS:          0
PSCL5 USEFUL LOAD PREFETCHES:          0 PREFETCH ISSUED TO LOWER LEVEL:          0  ACCURACY: -nan
PSCL5 TIMELY PREFETCHES:          0 LATE PREFETCHES: 0 DROPPED PREFETCHES: 0
PSCL5 PREFETCHES SAME FILL-ORIGIN LEVEL: 0 DIFFERENT FILL-ORIGIN LEVEL: 0

PSCL4 TOTAL     ACCESS:      65949  HIT:      65855  MISS:         94  HIT %:    99.8575  MISS %:   0.142534   MPKI: 0.00047
PSCL4 LOAD TRANSLATION ACCESS:      65346  HIT:      65252  MISS:         94  HIT %:    99.8562  MISS %:    0.14385   MPKI: 0.00047
PSCL4 TRANSLATION FROM L1D PREFETCHER ACCESS:        603  HIT:        603  MISS:          0  HIT %:        100  MISS %:          0   MPKI: 0
PSCL4 PREFETCH  REQUESTED:          0  ISSUED:          0  USEFUL:          0  USELESS:          0
PSCL4 USEFUL LOAD PREFETCHES:          0 PREFETCH ISSUED TO LOWER LEVEL:          0  ACCURACY: -nan
PSCL4 TIMELY PREFETCHES:          0 LATE PREFETCHES: 0 DROPPED PREFETCHES: 0
PSCL4 PREFETCHES SAME FILL-ORIGIN LEVEL: 0 DIFFERENT FILL-ORIGIN LEVEL: 0

PSCL3 TOTAL     ACCESS:      75026  HIT:      74837  MISS:        189  HIT %:    99.7481  MISS %:   0.251913   MPKI: 0.000945
PSCL3 LOAD TRANSLATION ACCESS:      74376  HIT:      74187  MISS:        189  HIT %:    99.7459  MISS %:   0.254114   MPKI: 0.000945
PSCL3 TRANSLATION FROM L1D PREFETCHER ACCESS:        650  HIT:        650  MISS:          0  HIT %:        100  MISS %:          0   MPKI: 0
PSCL3 PREFETCH  REQUESTED:          0  ISSUED:          0  USEFUL:          0  USELESS:          0
PSCL3 USEFUL LOAD PREFETCHES:          0 PREFETCH ISSUED TO LOWER LEVEL:          0  ACCURACY: -nan
PSCL3 TIMELY PREFETCHES:          0 LATE PREFETCHES: 0 DROPPED PREFETCHES: 0
PSCL3 PREFETCHES SAME FILL-ORIGIN LEVEL: 0 DIFFERENT FILL-ORIGIN LEVEL: 0

PSCL2 TOTAL     ACCESS:      75352  HIT:      68872  MISS:       6480  HIT %:    91.4004  MISS %:    8.59964   MPKI: 0.0324
PSCL2 LOAD TRANSLATION ACCESS:      75246  HIT:      68766  MISS:       6480  HIT %:    91.3882  MISS %:    8.61175   MPKI: 0.0324
PSCL2 TRANSLATION FROM L1D PREFETCHER ACCESS:        106  HIT:        106  MISS:          0  HIT %:        100  MISS %:          0   MPKI: 0
PSCL2 PREFETCH  REQUESTED:          0  ISSUED:          0  USEFUL:          0  USELESS:          0
PSCL2 USEFUL LOAD PREFETCHES:          0 PREFETCH ISSUED TO LOWER LEVEL:          0  ACCURACY: -nan
PSCL2 TIMELY PREFETCHES:          0 LATE PREFETCHES: 0 DROPPED PREFETCHES: 0
PSCL2 PREFETCHES SAME FILL-ORIGIN LEVEL: 0 DIFFERENT FILL-ORIGIN LEVEL: 0

LLC TOTAL     ACCESS:   10495314  HIT:    4162562  MISS:    6332752  HIT %:    39.6611  MISS %:    60.3389   MPKI: 31.6638
LLC LOAD      ACCESS:    2871748  HIT:    1642704  MISS:    1229044  HIT %:    57.2022  MISS %:    42.7978   MPKI: 6.14522
LLC RFO       ACCESS:    3545208  HIT:     969194  MISS:    2576014  HIT %:    27.3381  MISS %:    72.6619   MPKI: 12.8801
LLC PREFETCH  ACCESS:       4496  HIT:       3235  MISS:       1261  HIT %:    71.9528  MISS %:    28.0472   MPKI: 0.006305
AGUS PREFETCH L1 MISS: 0
LLC WRITEBACK ACCESS:    4037830  HIT:    1533163  MISS:    2504667  HIT %:      37.97  MISS %:      62.03   MPKI: 12.5233
LLC LOAD TRANSLATION ACCESS:      35122  HIT:      13906  MISS:      21216  HIT %:    39.5934  MISS %:    60.4066   MPKI: 0.10608
LLC TRANSLATION FROM L1D PREFETCHER ACCESS:        910  HIT:        360  MISS:        550  HIT %:    39.5604  MISS %:    60.4396   MPKI: 0.00275
LLC PREFETCH  REQUESTED:          0  ISSUED:          0  USEFUL:         23  USELESS:       1784
LLC USEFUL LOAD PREFETCHES:         23 PREFETCH ISSUED TO LOWER LEVEL:       1261  ACCURACY: 1.82395
LLC TIMELY PREFETCHES:         23 LATE PREFETCHES: 0 DROPPED PREFETCHES: 0
LLC PREFETCHES SAME FILL-ORIGIN LEVEL: 0 DIFFERENT FILL-ORIGIN LEVEL: 0
LLC AVERAGE MISS LATENCY: 135.663 cycles
LLC RQ	ACCESS:    6452998	FORWARD:          0	MERGED:          0	TO_CACHE:    6452989
LLC WQ	ACCESS:    4037832	FORWARD:          9	MERGED:          0	TO_CACHE:    4037832
LLC PQ	ACCESS:       4496	FORWARD:          0	MERGED:          0	TO_CACHE:       4496

LLC Dense regions hint to LLC: 0

RAW hits: 2481585
Loads Generated: 47729674
Loads sent to L1D: 45248087
Stores Generated: 34266005
Stores sent to L1D: 34266000
Major fault: 0 Minor fault: 8372
Allocated PAGES: 8372
Completed 
Accuracy : 90.0095
Number of unique groups: 2524003

DRAM Statistics
 CHANNEL 0
 RQ ROW_BUFFER_HIT:    1786659  ROW_BUFFER_MISS:    2041029
 DBUS_CONGESTED:       2008
 WQ ROW_BUFFER_HIT:     585846  ROW_BUFFER_MISS:    2056037  FULL:      63526

 AVG_CONGESTED_CYCLE: 3
 All warmup complete: 2
Channel 0 Bank busy for read cycles: 0
Channel 0 Bank busy for write cycles: 0
Channel 0
Rank 0
0banks busy for read cycles: 176921928
0banks busy for write cycles: 271536
1banks busy for read cycles: 30101723
1banks busy for write cycles: 38282843
2banks busy for read cycles: 13799053
2banks busy for write cycles: 13501112
3banks busy for read cycles: 16844777
3banks busy for write cycles: 5700949
4banks busy for read cycles: 9372641
4banks busy for write cycles: 3690359
5banks busy for read cycles: 6162630
5banks busy for write cycles: 3275732
6banks busy for read cycles: 11519020
6banks busy for write cycles: 3402915
7banks busy for read cycles: 5036696
7banks busy for write cycles: 6069509
8banks busy for read cycles: 15178573
8banks busy for write cycles: 36699484

CPU 0 Branch Prediction Accuracy: 99.9491% MPKI: 0.077685 Average ROB Occupancy at Mispredict: 129.54
Branch types
NOT_BRANCH: 169475776 84.7379%
BRANCH_DIRECT_JUMP: 1658498 0.829249%
BRANCH_INDIRECT: 9965680 4.98284%
BRANCH_CONDITIONAL: 12076911 6.03846%
BRANCH_DIRECT_CALL: 2819430 1.40971%
BRANCH_INDIRECT_CALL: 592212 0.296106%
BRANCH_RETURN: 3411709 1.70585%
BRANCH_OTHER: 0 0%

DRAM PAGES: 1048576
Allocated PAGES: 8372
