
*** ChampSim Multicore Out-of-Order Simulator ***

Warmup Instructions: 50000000
Simulation Instructions: 200000000
Number of CPUs: 1
LLC sets: 2048
LLC ways: 16
Off-chip DRAM Size: 4096 MB Channels: 1 Width: 64-bit Data Rate: 6400 MT/s
CPU 0 runs traces/spec2k17/srv_68.champsimtrace.xz
.xz
BTB has LRU replacement policy
ITLB has LRU replacement policy
DTLB has LRU replacement policy
STLB has LRU replacement policy
L1I has LRU replacement policy
L1D has LRU replacement policy
Initialize SRRIP state for L2C
Initialize DRRIP state for LLC
Heartbeat CPU 0 instructions: 10000002 cycles: 2768117 heartbeat IPC: 3.61256 cumulative IPC: 3.61256 (Simulation time: 0 hr 0 min 26 sec) 
Heartbeat CPU 0 instructions: 20000003 cycles: 5532299 heartbeat IPC: 3.61771 cumulative IPC: 3.61513 (Simulation time: 0 hr 0 min 52 sec) 
Heartbeat CPU 0 instructions: 30000003 cycles: 8297403 heartbeat IPC: 3.6165 cumulative IPC: 3.61559 (Simulation time: 0 hr 1 min 18 sec) 
*** Reached end of trace for Core: 0 Repeating trace: traces/spec2k17/srv_68.champsimtrace.xz
Heartbeat CPU 0 instructions: 40000001 cycles: 11058919 heartbeat IPC: 3.6212 cumulative IPC: 3.61699 (Simulation time: 0 hr 1 min 46 sec) 
Heartbeat CPU 0 instructions: 50000000 cycles: 13822838 heartbeat IPC: 3.61805 cumulative IPC: 3.6172 (Simulation time: 0 hr 2 min 15 sec) 

Warmup complete CPU 0 instructions: 50000004 cycles: 13822839 (Simulation time: 0 hr 2 min 15 sec) 

Heartbeat CPU 0 instructions: 60000001 cycles: 36343233 heartbeat IPC: 0.444042 cumulative IPC: 0.444042 (Simulation time: 0 hr 2 min 52 sec) 
*** Reached end of trace for Core: 0 Repeating trace: traces/spec2k17/srv_68.champsimtrace.xz
Heartbeat CPU 0 instructions: 70000003 cycles: 58194982 heartbeat IPC: 0.457629 cumulative IPC: 0.450733 (Simulation time: 0 hr 3 min 34 sec) 
Heartbeat CPU 0 instructions: 80000001 cycles: 80196937 heartbeat IPC: 0.454505 cumulative IPC: 0.451984 (Simulation time: 0 hr 4 min 42 sec) 
Heartbeat CPU 0 instructions: 90000000 cycles: 102872606 heartbeat IPC: 0.441001 cumulative IPC: 0.449187 (Simulation time: 0 hr 6 min 7 sec) 
*** Reached end of trace for Core: 0 Repeating trace: traces/spec2k17/srv_68.champsimtrace.xz
Heartbeat CPU 0 instructions: 100000001 cycles: 124274611 heartbeat IPC: 0.467246 cumulative IPC: 0.452686 (Simulation time: 0 hr 7 min 12 sec) 
Heartbeat CPU 0 instructions: 110000000 cycles: 146587235 heartbeat IPC: 0.448177 cumulative IPC: 0.451928 (Simulation time: 0 hr 9 min 12 sec) 
Heartbeat CPU 0 instructions: 120000001 cycles: 169031704 heartbeat IPC: 0.445544 cumulative IPC: 0.451005 (Simulation time: 0 hr 10 min 39 sec) 
*** Reached end of trace for Core: 0 Repeating trace: traces/spec2k17/srv_68.champsimtrace.xz
Heartbeat CPU 0 instructions: 130000003 cycles: 190326507 heartbeat IPC: 0.469598 cumulative IPC: 0.453248 (Simulation time: 0 hr 12 min 23 sec) 
Heartbeat CPU 0 instructions: 140000000 cycles: 212682398 heartbeat IPC: 0.447309 cumulative IPC: 0.452581 (Simulation time: 0 hr 14 min 11 sec) 
Heartbeat CPU 0 instructions: 150000002 cycles: 235060528 heartbeat IPC: 0.446865 cumulative IPC: 0.452003 (Simulation time: 0 hr 16 min 11 sec) 
*** Reached end of trace for Core: 0 Repeating trace: traces/spec2k17/srv_68.champsimtrace.xz
Heartbeat CPU 0 instructions: 160000001 cycles: 256567070 heartbeat IPC: 0.464975 cumulative IPC: 0.453152 (Simulation time: 0 hr 18 min 14 sec) 
Heartbeat CPU 0 instructions: 170000000 cycles: 278823526 heartbeat IPC: 0.449308 cumulative IPC: 0.452829 (Simulation time: 0 hr 19 min 47 sec) 
Heartbeat CPU 0 instructions: 180000001 cycles: 301265409 heartbeat IPC: 0.445595 cumulative IPC: 0.452264 (Simulation time: 0 hr 21 min 8 sec) 
*** Reached end of trace for Core: 0 Repeating trace: traces/spec2k17/srv_68.champsimtrace.xz
Heartbeat CPU 0 instructions: 190000000 cycles: 322732651 heartbeat IPC: 0.465826 cumulative IPC: 0.453207 (Simulation time: 0 hr 22 min 10 sec) 
Heartbeat CPU 0 instructions: 200000000 cycles: 344745053 heartbeat IPC: 0.454289 cumulative IPC: 0.453279 (Simulation time: 0 hr 23 min 3 sec) 
Heartbeat CPU 0 instructions: 210000000 cycles: 367315458 heartbeat IPC: 0.443058 cumulative IPC: 0.452626 (Simulation time: 0 hr 23 min 59 sec) 
*** Reached end of trace for Core: 0 Repeating trace: traces/spec2k17/srv_68.champsimtrace.xz
Heartbeat CPU 0 instructions: 220000000 cycles: 388620329 heartbeat IPC: 0.469376 cumulative IPC: 0.453578 (Simulation time: 0 hr 25 min 19 sec) 
Heartbeat CPU 0 instructions: 230000001 cycles: 410848901 heartbeat IPC: 0.449872 cumulative IPC: 0.453371 (Simulation time: 0 hr 26 min 7 sec) 
Heartbeat CPU 0 instructions: 240000002 cycles: 433275691 heartbeat IPC: 0.445895 cumulative IPC: 0.452971 (Simulation time: 0 hr 26 min 45 sec) 
*** Reached end of trace for Core: 0 Repeating trace: traces/spec2k17/srv_68.champsimtrace.xz
Heartbeat CPU 0 instructions: 250000002 cycles: 454599399 heartbeat IPC: 0.468962 cumulative IPC: 0.453745 (Simulation time: 0 hr 27 min 18 sec) 
Finished CPU 0 instructions: 200000002 cycles: 440776561 cumulative IPC: 0.453745 (Simulation time: 0 hr 27 min 18 sec) 

ChampSim completed all CPUs

Region of Interest Statistics

CPU 0 cumulative IPC: 0.453745 instructions: 200000002 cycles: 440776561
ITLB TOTAL     ACCESS:   31180510  HIT:   30444798  MISS:     735712  HIT %:    97.6405  MISS %:    2.35953   MPKI: 3.67856
ITLB LOAD TRANSLATION ACCESS:   31180510  HIT:   30444798  MISS:     735712  HIT %:    97.6405  MISS %:    2.35953   MPKI: 3.67856
ITLB PREFETCH  REQUESTED:          0  ISSUED:          0  USEFUL:          0  USELESS:          0
ITLB USEFUL LOAD PREFETCHES:          0 PREFETCH ISSUED TO LOWER LEVEL:          0  ACCURACY: -nan
ITLB TIMELY PREFETCHES:          0 LATE PREFETCHES: 0 DROPPED PREFETCHES: 0
ITLB PREFETCHES SAME FILL-ORIGIN LEVEL: 0 DIFFERENT FILL-ORIGIN LEVEL: 0
ITLB AVERAGE MISS LATENCY: 14.5482 cycles
ITLB RQ	ACCESS:   38047523	FORWARD:          0	MERGED:    6687391	TO_CACHE:   31360132

DTLB TOTAL     ACCESS:   36844743  HIT:   34455513  MISS:    2389230  HIT %:    93.5154  MISS %:    6.48459   MPKI: 11.9461
DTLB LOAD TRANSLATION ACCESS:   36844743  HIT:   34455513  MISS:    2389230  HIT %:    93.5154  MISS %:    6.48459   MPKI: 11.9461
DTLB PREFETCH  REQUESTED:          0  ISSUED:          0  USEFUL:          0  USELESS:          0
DTLB USEFUL LOAD PREFETCHES:          0 PREFETCH ISSUED TO LOWER LEVEL:          0  ACCURACY: -nan
DTLB TIMELY PREFETCHES:          0 LATE PREFETCHES: 0 DROPPED PREFETCHES: 0
DTLB PREFETCHES SAME FILL-ORIGIN LEVEL: 0 DIFFERENT FILL-ORIGIN LEVEL: 0
DTLB AVERAGE MISS LATENCY: 13.9672 cycles
DTLB RQ	ACCESS:   47208667	FORWARD:          0	MERGED:   10221510	TO_CACHE:   36987157

STLB TOTAL     ACCESS:    5829919  HIT:    5451597  MISS:     378322  HIT %:    93.5107  MISS %:    6.48932   MPKI: 1.89161
STLB LOAD TRANSLATION ACCESS:    3124941  HIT:    2747116  MISS:     377825  HIT %:    87.9094  MISS %:    12.0906   MPKI: 1.88912
STLB TRANSLATION FROM L1D PREFETCHER ACCESS:    2704978  HIT:    2704481  MISS:        497  HIT %:    99.9816  MISS %:  0.0183735   MPKI: 0.002485
STLB PREFETCH  REQUESTED:          0  ISSUED:          0  USEFUL:        456  USELESS:         41
STLB USEFUL LOAD PREFETCHES:        456 PREFETCH ISSUED TO LOWER LEVEL:          0  ACCURACY: inf
STLB TIMELY PREFETCHES:        456 LATE PREFETCHES: 197 DROPPED PREFETCHES: 2898
STLB PREFETCHES SAME FILL-ORIGIN LEVEL: 0 DIFFERENT FILL-ORIGIN LEVEL: 0
STLB AVERAGE MISS LATENCY: 42.8185 cycles
STLB RQ	ACCESS:    6546094	FORWARD:          0	MERGED:     712949	TO_CACHE:    5833145

STLB Hit, L1D data hit: 0
STLB Hit, L2C data hit: 0
STLB Hit, LLC data hit: 0
STLB Hit, LLC data miss: 0
STLB STLB hints to L2: 0
L1D TOTAL     ACCESS:   50096539  HIT:   47756715  MISS:    2339824  HIT %:    95.3294  MISS %:    4.67063   MPKI: 11.6991
L1D LOAD      ACCESS:   27434924  HIT:   25414469  MISS:    2020455  HIT %:    92.6355  MISS %:    7.36454   MPKI: 10.1023
L1D RFO       ACCESS:   19263778  HIT:   18952572  MISS:     311206  HIT %:    98.3845  MISS %:     1.6155   MPKI: 1.55603
L1D PREFETCH  ACCESS:    3397837  HIT:    3389674  MISS:       8163  HIT %:    99.7598  MISS %:   0.240241   MPKI: 0.040815
AGUS PREFETCH L1 MISS: 0
L1D PREFETCH  REQUESTED:    6943727  ISSUED:    6943719  USEFUL:       7543  USELESS:        620
L1D USEFUL LOAD PREFETCHES:       7543 PREFETCH ISSUED TO LOWER LEVEL:      15199  ACCURACY: 49.6283
L1D TIMELY PREFETCHES:       7543 LATE PREFETCHES: 6863 DROPPED PREFETCHES: 5631
L1D PREFETCHES SAME FILL-ORIGIN LEVEL: 15199 DIFFERENT FILL-ORIGIN LEVEL: 0
L1D AVERAGE MISS LATENCY: 847798 cycles
L1D RQ	ACCESS:   42591197	FORWARD:          0	MERGED:   14802951	TO_CACHE:   27561140
L1D WQ	ACCESS:   19969250	FORWARD:     229309	MERGED:     321723	TO_CACHE:   19647527
L1D PQ	ACCESS:    3522565	FORWARD:          0	MERGED:      99208	TO_CACHE:    3421154

L1D UNIQUE REGIONS ACCESSED: 0
L1D REGIONS CONFLICTS: 0
L1D Cross Page Prefetch Requests: 3036663
L1D Same Page Prefetch Requests: 701569
L1D ROI Sum of L1D PQ occupancy: 47815307
L1D PREFETCHES PUSHED FROM L2C: 0
L1I TOTAL     ACCESS:   36406410  HIT:   31636339  MISS:    4770071  HIT %:    86.8977  MISS %:    13.1023   MPKI: 23.8504
L1I LOAD      ACCESS:   36406410  HIT:   31636339  MISS:    4770071  HIT %:    86.8977  MISS %:    13.1023   MPKI: 23.8504
L1I PREFETCH  REQUESTED:          0  ISSUED:          0  USEFUL:          0  USELESS:          0
L1I USEFUL LOAD PREFETCHES:          0 PREFETCH ISSUED TO LOWER LEVEL:          0  ACCURACY: -nan
L1I TIMELY PREFETCHES:          0 LATE PREFETCHES: 0 DROPPED PREFETCHES: 0
L1I PREFETCHES SAME FILL-ORIGIN LEVEL: 0 DIFFERENT FILL-ORIGIN LEVEL: 0
L1I AVERAGE MISS LATENCY: 26.5015 cycles
L1I RQ	ACCESS:   56572475	FORWARD:          0	MERGED:   18524952	TO_CACHE:   38047523

BTB TOTAL     ACCESS:   21751551  HIT:   17439369  MISS:    4312182  HIT %:    80.1753  MISS %:    19.8247   MPKI: 21.5609
BTB BRANCH_DIRECT_JUMP	ACCESS:    1714565  HIT:    1465961  MISS:     248604
BTB BRANCH_INDIRECT	ACCESS:    9411853  HIT:    7323167  MISS:    2088686
BTB BRANCH_CONDITIONAL	ACCESS:    4498891  HIT:    4091160  MISS:     407731
BTB BRANCH_DIRECT_CALL	ACCESS:    2431594  HIT:    1968834  MISS:     462760
BTB BRANCH_INDIRECT_CALL	ACCESS:     630486  HIT:     593321  MISS:      37165
BTB BRANCH_RETURN	ACCESS:    3064162  HIT:    1996926  MISS:    1067236
BTB BRANCH_OTHER ACCESS:          0  HIT:          0  MISS:          0

L2C TOTAL     ACCESS:    8564823  HIT:    5295273  MISS:    3269550  HIT %:    61.8258  MISS %:    38.1742   MPKI: 16.3477
L2C LOAD      ACCESS:    6783519  HIT:    3898188  MISS:    2885331  HIT %:    57.4656  MISS %:    42.5344   MPKI: 14.4267
L2C DATA LOAD MPKI: 4.94459
L2C INSTRUCTION LOAD MPKI: 9.48206
L2C RFO       ACCESS:     310958  HIT:     168377  MISS:     142581  HIT %:    54.1478  MISS %:    45.8522   MPKI: 0.712905
L2C PREFETCH  ACCESS:      15196  HIT:      12270  MISS:       2926  HIT %:    80.7449  MISS %:    19.2551   MPKI: 0.01463
AGUS PREFETCH L1 MISS: 0
L2C DATA PREFETCH MPKI: 0.01463
L2C INSTRUCTION PREFETCH MPKI: 0
L2C WRITEBACK ACCESS:     963511  HIT:     909478  MISS:      54033  HIT %:    94.3921  MISS %:    5.60793   MPKI: 0.270165
L2C LOAD TRANSLATION ACCESS:     487640  HIT:     303532  MISS:     184108  HIT %:    62.2451  MISS %:    37.7549   MPKI: 0.92054
L2C TRANSLATION FROM L1D PREFETCHER ACCESS:       3999  HIT:       3428  MISS:        571  HIT %:    85.7214  MISS %:    14.2786   MPKI: 0.002855
L2C PREFETCH  REQUESTED:          0  ISSUED:          0  USEFUL:       1725  USELESS:       1765
L2C USEFUL LOAD PREFETCHES:       1725 PREFETCH ISSUED TO LOWER LEVEL:       2926  ACCURACY: 58.9542
L2C TIMELY PREFETCHES:       1725 LATE PREFETCHES: 0 DROPPED PREFETCHES: 0
L2C PREFETCHES SAME FILL-ORIGIN LEVEL: 0 DIFFERENT FILL-ORIGIN LEVEL: 0
L2C AVERAGE MISS LATENCY: 44.2493 cycles
L2C RQ	ACCESS:    7586334	FORWARD:          0	MERGED:          0	TO_CACHE:    7586116
L2C WQ	ACCESS:     963512	FORWARD:        221	MERGED:          0	TO_CACHE:     963512
L2C PQ	ACCESS:      15199	FORWARD:          0	MERGED:          0	TO_CACHE:      15196

L2C Instructions Evicting Data 686107
L2C Translations Evicting Data 67267
L2C Data Evicting Data 415277
L2C Instructions Evicting Instructions 1104085
L2C Translations Evicting Instructions 107676
L2C Data Evicting Instructions 653591
L2C Instructions Evicting Translations 106221
L2C Translations Evicting Translations 9736
L2C Data Evicting Translations 65557
L2C Dense regions hint from L2: 0
PSCL5 TOTAL     ACCESS:     381215  HIT:     381215  MISS:          0  HIT %:        100  MISS %:          0   MPKI: 0
PSCL5 LOAD TRANSLATION ACCESS:     377627  HIT:     377627  MISS:          0  HIT %:        100  MISS %:          0   MPKI: 0
PSCL5 TRANSLATION FROM L1D PREFETCHER ACCESS:       3588  HIT:       3588  MISS:          0  HIT %:        100  MISS %:          0   MPKI: 0
PSCL5 PREFETCH  REQUESTED:          0  ISSUED:          0  USEFUL:          0  USELESS:          0
PSCL5 USEFUL LOAD PREFETCHES:          0 PREFETCH ISSUED TO LOWER LEVEL:          0  ACCURACY: -nan
PSCL5 TIMELY PREFETCHES:          0 LATE PREFETCHES: 0 DROPPED PREFETCHES: 0
PSCL5 PREFETCHES SAME FILL-ORIGIN LEVEL: 0 DIFFERENT FILL-ORIGIN LEVEL: 0

PSCL4 TOTAL     ACCESS:     354229  HIT:     353614  MISS:        615  HIT %:    99.8264  MISS %:   0.173617   MPKI: 0.003075
PSCL4 LOAD TRANSLATION ACCESS:     351423  HIT:     350808  MISS:        615  HIT %:     99.825  MISS %:   0.175003   MPKI: 0.003075
PSCL4 TRANSLATION FROM L1D PREFETCHER ACCESS:       2806  HIT:       2806  MISS:          0  HIT %:        100  MISS %:          0   MPKI: 0
PSCL4 PREFETCH  REQUESTED:          0  ISSUED:          0  USEFUL:          0  USELESS:          0
PSCL4 USEFUL LOAD PREFETCHES:          0 PREFETCH ISSUED TO LOWER LEVEL:          0  ACCURACY: -nan
PSCL4 TIMELY PREFETCHES:          0 LATE PREFETCHES: 0 DROPPED PREFETCHES: 0
PSCL4 PREFETCHES SAME FILL-ORIGIN LEVEL: 0 DIFFERENT FILL-ORIGIN LEVEL: 0

PSCL3 TOTAL     ACCESS:     380033  HIT:     378029  MISS:       2004  HIT %:    99.4727  MISS %:   0.527323   MPKI: 0.01002
PSCL3 LOAD TRANSLATION ACCESS:     376463  HIT:     374459  MISS:       2004  HIT %:    99.4677  MISS %:   0.532323   MPKI: 0.01002
PSCL3 TRANSLATION FROM L1D PREFETCHER ACCESS:       3570  HIT:       3570  MISS:          0  HIT %:        100  MISS %:          0   MPKI: 0
PSCL3 PREFETCH  REQUESTED:          0  ISSUED:          0  USEFUL:          0  USELESS:          0
PSCL3 USEFUL LOAD PREFETCHES:          0 PREFETCH ISSUED TO LOWER LEVEL:          0  ACCURACY: -nan
PSCL3 TIMELY PREFETCHES:          0 LATE PREFETCHES: 0 DROPPED PREFETCHES: 0
PSCL3 PREFETCHES SAME FILL-ORIGIN LEVEL: 0 DIFFERENT FILL-ORIGIN LEVEL: 0

PSCL2 TOTAL     ACCESS:     378329  HIT:     270586  MISS:     107743  HIT %:    71.5213  MISS %:    28.4787   MPKI: 0.538715
PSCL2 LOAD TRANSLATION ACCESS:     377977  HIT:     270234  MISS:     107743  HIT %:    71.4948  MISS %:    28.5052   MPKI: 0.538715
PSCL2 TRANSLATION FROM L1D PREFETCHER ACCESS:        352  HIT:        352  MISS:          0  HIT %:        100  MISS %:          0   MPKI: 0
PSCL2 PREFETCH  REQUESTED:          0  ISSUED:          0  USEFUL:          0  USELESS:          0
PSCL2 USEFUL LOAD PREFETCHES:          0 PREFETCH ISSUED TO LOWER LEVEL:          0  ACCURACY: -nan
PSCL2 TIMELY PREFETCHES:          0 LATE PREFETCHES: 0 DROPPED PREFETCHES: 0
PSCL2 PREFETCHES SAME FILL-ORIGIN LEVEL: 0 DIFFERENT FILL-ORIGIN LEVEL: 0

LLC TOTAL     ACCESS:    3660073  HIT:    3355884  MISS:     304189  HIT %:     91.689  MISS %:    8.31101   MPKI: 1.52094
LLC LOAD      ACCESS:    2885317  HIT:    2642703  MISS:     242614  HIT %:    91.5914  MISS %:    8.40857   MPKI: 1.21307
LLC RFO       ACCESS:     142579  HIT:      93343  MISS:      49236  HIT %:    65.4676  MISS %:    34.5324   MPKI: 0.24618
LLC PREFETCH  ACCESS:       2926  HIT:       2842  MISS:         84  HIT %:    97.1292  MISS %:    2.87081   MPKI: 0.00042
AGUS PREFETCH L1 MISS: 0
LLC WRITEBACK ACCESS:     444572  HIT:     442395  MISS:       2177  HIT %:    99.5103  MISS %:   0.489684   MPKI: 0.010885
LLC LOAD TRANSLATION ACCESS:     184108  HIT:     174068  MISS:      10040  HIT %:    94.5467  MISS %:    5.45332   MPKI: 0.0502
LLC TRANSLATION FROM L1D PREFETCHER ACCESS:        571  HIT:        533  MISS:         38  HIT %:     93.345  MISS %:    6.65499   MPKI: 0.00019
LLC PREFETCH  REQUESTED:          0  ISSUED:          0  USEFUL:         35  USELESS:         87
LLC USEFUL LOAD PREFETCHES:         35 PREFETCH ISSUED TO LOWER LEVEL:         84  ACCURACY: 41.6667
LLC TIMELY PREFETCHES:         35 LATE PREFETCHES: 0 DROPPED PREFETCHES: 0
LLC PREFETCHES SAME FILL-ORIGIN LEVEL: 0 DIFFERENT FILL-ORIGIN LEVEL: 0
LLC AVERAGE MISS LATENCY: 158.482 cycles
LLC RQ	ACCESS:    3212591	FORWARD:          0	MERGED:          0	TO_CACHE:    3212575
LLC WQ	ACCESS:     444572	FORWARD:         16	MERGED:          0	TO_CACHE:     444572
LLC PQ	ACCESS:       2926	FORWARD:          0	MERGED:          0	TO_CACHE:       2926

LLC Dense regions hint to LLC: 0

RAW hits: 3162986
Loads Generated: 45754181
Loads sent to L1D: 42591197
Stores Generated: 19969261
Stores sent to L1D: 19969250
Major fault: 0 Minor fault: 5849
Allocated PAGES: 5849
Completed 
Accuracy : 87.0358
Number of unique groups: 3797880

DRAM Statistics
 CHANNEL 0
 RQ ROW_BUFFER_HIT:      56313  ROW_BUFFER_MISS:     245699
 DBUS_CONGESTED:         68
 WQ ROW_BUFFER_HIT:      30748  ROW_BUFFER_MISS:     185514  FULL:          0

 AVG_CONGESTED_CYCLE: 4
 All warmup complete: 2
Channel 0 Bank busy for read cycles: 0
Channel 0 Bank busy for write cycles: 0
Channel 0
Rank 0
0banks busy for read cycles: 381951097
0banks busy for write cycles: 126371
1banks busy for read cycles: 29182790
1banks busy for write cycles: 18161490
2banks busy for read cycles: 3328895
2banks busy for write cycles: 4104329
3banks busy for read cycles: 390462
3banks busy for write cycles: 1380911
4banks busy for read cycles: 200382
4banks busy for write cycles: 651977
5banks busy for read cycles: 75843
5banks busy for write cycles: 354037
6banks busy for read cycles: 52982
6banks busy for write cycles: 206642
7banks busy for read cycles: 42681
7banks busy for write cycles: 177321
8banks busy for read cycles: 110644
8banks busy for write cycles: 277708

CPU 0 Branch Prediction Accuracy: 99.7946% MPKI: 0.361505 Average ROB Occupancy at Mispredict: 44.1556
Branch types
NOT_BRANCH: 164798107 82.3991%
BRANCH_DIRECT_JUMP: 1714565 0.857282%
BRANCH_INDIRECT: 9411853 4.70593%
BRANCH_CONDITIONAL: 17949372 8.97469%
BRANCH_DIRECT_CALL: 2431594 1.2158%
BRANCH_INDIRECT_CALL: 630486 0.315243%
BRANCH_RETURN: 3064162 1.53208%
BRANCH_OTHER: 0 0%

DRAM PAGES: 1048576
Allocated PAGES: 5849
