
*** ChampSim Multicore Out-of-Order Simulator ***

Warmup Instructions: 50000000
Simulation Instructions: 200000000
Number of CPUs: 1
LLC sets: 2048
LLC ways: 16
Off-chip DRAM Size: 4096 MB Channels: 1 Width: 64-bit Data Rate: 6400 MT/s
CPU 0 runs traces/spec2k17/srv_54.champsimtrace.xz
.xz
BTB has LRU replacement policy
ITLB has LRU replacement policy
DTLB has LRU replacement policy
STLB has LRU replacement policy
L1I has LRU replacement policy
L1D has LRU replacement policy
Initialize SRRIP state for L2C
Initialize DRRIP state for LLC
Heartbeat CPU 0 instructions: 10000000 cycles: 2817600 heartbeat IPC: 3.54912 cumulative IPC: 3.54912 (Simulation time: 0 hr 0 min 40 sec) 
Heartbeat CPU 0 instructions: 20000002 cycles: 5631334 heartbeat IPC: 3.554 cumulative IPC: 3.55156 (Simulation time: 0 hr 1 min 18 sec) 
Heartbeat CPU 0 instructions: 30000001 cycles: 8451758 heartbeat IPC: 3.54557 cumulative IPC: 3.54956 (Simulation time: 0 hr 2 min 6 sec) 
*** Reached end of trace for Core: 0 Repeating trace: traces/spec2k17/srv_54.champsimtrace.xz
Heartbeat CPU 0 instructions: 40000000 cycles: 11257897 heartbeat IPC: 3.56362 cumulative IPC: 3.55306 (Simulation time: 0 hr 2 min 57 sec) 
Heartbeat CPU 0 instructions: 50000003 cycles: 14079572 heartbeat IPC: 3.544 cumulative IPC: 3.55124 (Simulation time: 0 hr 3 min 36 sec) 

Warmup complete CPU 0 instructions: 50000003 cycles: 14079572 (Simulation time: 0 hr 3 min 36 sec) 

Heartbeat CPU 0 instructions: 60000003 cycles: 34029353 heartbeat IPC: 0.501259 cumulative IPC: 0.501259 (Simulation time: 0 hr 4 min 54 sec) 
*** Reached end of trace for Core: 0 Repeating trace: traces/spec2k17/srv_54.champsimtrace.xz
Heartbeat CPU 0 instructions: 70000001 cycles: 51888948 heartbeat IPC: 0.559923 cumulative IPC: 0.528969 (Simulation time: 0 hr 5 min 45 sec) 
Heartbeat CPU 0 instructions: 80000002 cycles: 71302233 heartbeat IPC: 0.515111 cumulative IPC: 0.524268 (Simulation time: 0 hr 7 min 2 sec) 
Heartbeat CPU 0 instructions: 90000001 cycles: 91756844 heartbeat IPC: 0.488887 cumulative IPC: 0.514951 (Simulation time: 0 hr 7 min 53 sec) 
*** Reached end of trace for Core: 0 Repeating trace: traces/spec2k17/srv_54.champsimtrace.xz
Heartbeat CPU 0 instructions: 100000002 cycles: 110994976 heartbeat IPC: 0.519801 cumulative IPC: 0.515914 (Simulation time: 0 hr 8 min 58 sec) 
Heartbeat CPU 0 instructions: 110000000 cycles: 128338056 heartbeat IPC: 0.576599 cumulative IPC: 0.525125 (Simulation time: 0 hr 10 min 44 sec) 
Heartbeat CPU 0 instructions: 120000003 cycles: 149669370 heartbeat IPC: 0.468795 cumulative IPC: 0.516263 (Simulation time: 0 hr 11 min 47 sec) 
*** Reached end of trace for Core: 0 Repeating trace: traces/spec2k17/srv_54.champsimtrace.xz
Heartbeat CPU 0 instructions: 130000001 cycles: 168487043 heartbeat IPC: 0.531415 cumulative IPC: 0.51811 (Simulation time: 0 hr 12 min 34 sec) 
Heartbeat CPU 0 instructions: 140000000 cycles: 187166096 heartbeat IPC: 0.535359 cumulative IPC: 0.519971 (Simulation time: 0 hr 13 min 19 sec) 
Heartbeat CPU 0 instructions: 150000000 cycles: 208560373 heartbeat IPC: 0.467415 cumulative IPC: 0.51419 (Simulation time: 0 hr 14 min 2 sec) 
*** Reached end of trace for Core: 0 Repeating trace: traces/spec2k17/srv_54.champsimtrace.xz
Heartbeat CPU 0 instructions: 160000002 cycles: 226275276 heartbeat IPC: 0.564497 cumulative IPC: 0.518389 (Simulation time: 0 hr 14 min 46 sec) 
Heartbeat CPU 0 instructions: 170000001 cycles: 245888206 heartbeat IPC: 0.509868 cumulative IPC: 0.517668 (Simulation time: 0 hr 15 min 29 sec) 
Heartbeat CPU 0 instructions: 180000001 cycles: 267143794 heartbeat IPC: 0.470465 cumulative IPC: 0.513704 (Simulation time: 0 hr 16 min 17 sec) 
*** Reached end of trace for Core: 0 Repeating trace: traces/spec2k17/srv_54.champsimtrace.xz
Heartbeat CPU 0 instructions: 190000002 cycles: 284373010 heartbeat IPC: 0.58041 cumulative IPC: 0.517956 (Simulation time: 0 hr 16 min 56 sec) 
Heartbeat CPU 0 instructions: 200000000 cycles: 302924283 heartbeat IPC: 0.539046 cumulative IPC: 0.51931 (Simulation time: 0 hr 17 min 36 sec) 
Heartbeat CPU 0 instructions: 210000000 cycles: 325811227 heartbeat IPC: 0.43693 cumulative IPC: 0.513262 (Simulation time: 0 hr 18 min 26 sec) 
*** Reached end of trace for Core: 0 Repeating trace: traces/spec2k17/srv_54.champsimtrace.xz
Heartbeat CPU 0 instructions: 220000000 cycles: 343188189 heartbeat IPC: 0.575475 cumulative IPC: 0.516547 (Simulation time: 0 hr 19 min 17 sec) 
Heartbeat CPU 0 instructions: 230000001 cycles: 359765791 heartbeat IPC: 0.603224 cumulative IPC: 0.520703 (Simulation time: 0 hr 20 min 22 sec) 
Heartbeat CPU 0 instructions: 240000002 cycles: 384534102 heartbeat IPC: 0.403742 cumulative IPC: 0.512883 (Simulation time: 0 hr 21 min 20 sec) 
*** Reached end of trace for Core: 0 Repeating trace: traces/spec2k17/srv_54.champsimtrace.xz
Heartbeat CPU 0 instructions: 250000000 cycles: 401463915 heartbeat IPC: 0.590674 cumulative IPC: 0.516283 (Simulation time: 0 hr 22 min 3 sec) 
Finished CPU 0 instructions: 200000002 cycles: 387384553 cumulative IPC: 0.516283 (Simulation time: 0 hr 22 min 3 sec) 

ChampSim completed all CPUs

Region of Interest Statistics

CPU 0 cumulative IPC: 0.516283 instructions: 200000002 cycles: 387384553
ITLB TOTAL     ACCESS:   33883892  HIT:   33284766  MISS:     599126  HIT %:    98.2318  MISS %:    1.76817   MPKI: 2.99563
ITLB LOAD TRANSLATION ACCESS:   33883892  HIT:   33284766  MISS:     599126  HIT %:    98.2318  MISS %:    1.76817   MPKI: 2.99563
ITLB PREFETCH  REQUESTED:          0  ISSUED:          0  USEFUL:          0  USELESS:          0
ITLB USEFUL LOAD PREFETCHES:          0 PREFETCH ISSUED TO LOWER LEVEL:          0  ACCURACY: -nan
ITLB TIMELY PREFETCHES:          0 LATE PREFETCHES: 0 DROPPED PREFETCHES: 0
ITLB PREFETCHES SAME FILL-ORIGIN LEVEL: 0 DIFFERENT FILL-ORIGIN LEVEL: 0
ITLB AVERAGE MISS LATENCY: 10.6194 cycles
ITLB RQ	ACCESS:   38514096	FORWARD:          0	MERGED:    4457463	TO_CACHE:   34056633

DTLB TOTAL     ACCESS:   39060834  HIT:   38435810  MISS:     625024  HIT %:    98.3999  MISS %:    1.60013   MPKI: 3.12512
DTLB LOAD TRANSLATION ACCESS:   39060834  HIT:   38435810  MISS:     625024  HIT %:    98.3999  MISS %:    1.60013   MPKI: 3.12512
DTLB PREFETCH  REQUESTED:          0  ISSUED:          0  USEFUL:          0  USELESS:          0
DTLB USEFUL LOAD PREFETCHES:          0 PREFETCH ISSUED TO LOWER LEVEL:          0  ACCURACY: -nan
DTLB TIMELY PREFETCHES:          0 LATE PREFETCHES: 0 DROPPED PREFETCHES: 0
DTLB PREFETCHES SAME FILL-ORIGIN LEVEL: 0 DIFFERENT FILL-ORIGIN LEVEL: 0
DTLB AVERAGE MISS LATENCY: 16.0807 cycles
DTLB RQ	ACCESS:   51314864	FORWARD:          0	MERGED:   12205094	TO_CACHE:   39109770

STLB TOTAL     ACCESS:    3572234  HIT:    3493862  MISS:      78372  HIT %:    97.8061  MISS %:    2.19392   MPKI: 0.39186
STLB LOAD TRANSLATION ACCESS:    1224150  HIT:    1146096  MISS:      78054  HIT %:    93.6238  MISS %:    6.37618   MPKI: 0.39027
STLB TRANSLATION FROM L1D PREFETCHER ACCESS:    2348084  HIT:    2347766  MISS:        318  HIT %:    99.9865  MISS %:   0.013543   MPKI: 0.00159
STLB PREFETCH  REQUESTED:          0  ISSUED:          0  USEFUL:        255  USELESS:         63
STLB USEFUL LOAD PREFETCHES:        255 PREFETCH ISSUED TO LOWER LEVEL:          0  ACCURACY: inf
STLB TIMELY PREFETCHES:        255 LATE PREFETCHES: 0 DROPPED PREFETCHES: 3565
STLB PREFETCHES SAME FILL-ORIGIN LEVEL: 0 DIFFERENT FILL-ORIGIN LEVEL: 0
STLB AVERAGE MISS LATENCY: 69.2013 cycles
STLB RQ	ACCESS:    4100357	FORWARD:          0	MERGED:     524554	TO_CACHE:    3575803

STLB Hit, L1D data hit: 0
STLB Hit, L2C data hit: 0
STLB Hit, LLC data hit: 0
STLB Hit, LLC data miss: 0
STLB STLB hints to L2: 0
L1D TOTAL     ACCESS:   53294580  HIT:   51640026  MISS:    1654554  HIT %:    96.8955  MISS %:    3.10454   MPKI: 8.27277
L1D LOAD      ACCESS:   31221591  HIT:   30103264  MISS:    1118327  HIT %:    96.4181  MISS %:     3.5819   MPKI: 5.59163
L1D RFO       ACCESS:   19202830  HIT:   18668597  MISS:     534233  HIT %:    97.2179  MISS %:    2.78205   MPKI: 2.67116
L1D PREFETCH  ACCESS:    2870159  HIT:    2868165  MISS:       1994  HIT %:    99.9305  MISS %:  0.0694735   MPKI: 0.00997
AGUS PREFETCH L1 MISS: 0
L1D PREFETCH  REQUESTED:    5828177  ISSUED:    5828177  USEFUL:        786  USELESS:       1208
L1D USEFUL LOAD PREFETCHES:        786 PREFETCH ISSUED TO LOWER LEVEL:       2420  ACCURACY: 32.4793
L1D TIMELY PREFETCHES:        786 LATE PREFETCHES: 426 DROPPED PREFETCHES: 3578
L1D PREFETCHES SAME FILL-ORIGIN LEVEL: 2420 DIFFERENT FILL-ORIGIN LEVEL: 0
L1D AVERAGE MISS LATENCY: 79122.2 cycles
L1D RQ	ACCESS:   43754388	FORWARD:          0	MERGED:   12122360	TO_CACHE:   31318310
L1D WQ	ACCESS:   20218308	FORWARD:     319266	MERGED:     221754	TO_CACHE:   19996554
L1D PQ	ACCESS:    2951970	FORWARD:          0	MERGED:      70215	TO_CACHE:    2876207

L1D UNIQUE REGIONS ACCESSED: 0
L1D REGIONS CONFLICTS: 0
L1D Cross Page Prefetch Requests: 2342078
L1D Same Page Prefetch Requests: 667567
L1D ROI Sum of L1D PQ occupancy: 40076975
L1D PREFETCHES PUSHED FROM L2C: 0
L1I TOTAL     ACCESS:   37976942  HIT:   34693690  MISS:    3283252  HIT %:    91.3546  MISS %:    8.64538   MPKI: 16.4163
L1I LOAD      ACCESS:   37976942  HIT:   34693690  MISS:    3283252  HIT %:    91.3546  MISS %:    8.64538   MPKI: 16.4163
L1I PREFETCH  REQUESTED:          0  ISSUED:          0  USEFUL:          0  USELESS:          0
L1I USEFUL LOAD PREFETCHES:          0 PREFETCH ISSUED TO LOWER LEVEL:          0  ACCURACY: -nan
L1I TIMELY PREFETCHES:          0 LATE PREFETCHES: 0 DROPPED PREFETCHES: 0
L1I PREFETCHES SAME FILL-ORIGIN LEVEL: 0 DIFFERENT FILL-ORIGIN LEVEL: 0
L1I AVERAGE MISS LATENCY: 22.074 cycles
L1I RQ	ACCESS:   60215360	FORWARD:          0	MERGED:   21701264	TO_CACHE:   38514096

BTB TOTAL     ACCESS:   31119945  HIT:   26685031  MISS:    4434914  HIT %:     85.749  MISS %:     14.251   MPKI: 22.1746
BTB BRANCH_DIRECT_JUMP	ACCESS:    3483278  HIT:    3224169  MISS:     259109
BTB BRANCH_INDIRECT	ACCESS:   12132846  HIT:   10375979  MISS:    1756867
BTB BRANCH_CONDITIONAL	ACCESS:    9258792  HIT:    8942003  MISS:     316789
BTB BRANCH_DIRECT_CALL	ACCESS:    2660044  HIT:    2167295  MISS:     492749
BTB BRANCH_INDIRECT_CALL	ACCESS:     462477  HIT:     321593  MISS:     140884
BTB BRANCH_RETURN	ACCESS:    3122508  HIT:    1653992  MISS:    1468516
BTB BRANCH_OTHER ACCESS:          0  HIT:          0  MISS:          0

L2C TOTAL     ACCESS:    5953024  HIT:    4145433  MISS:    1807591  HIT %:    69.6358  MISS %:    30.3642   MPKI: 9.03795
L2C LOAD      ACCESS:    4401144  HIT:    3040923  MISS:    1360221  HIT %:    69.0939  MISS %:    30.9061   MPKI: 6.8011
L2C DATA LOAD MPKI: 2.58463
L2C INSTRUCTION LOAD MPKI: 4.21647
L2C RFO       ACCESS:     534233  HIT:     212177  MISS:     322056  HIT %:    39.7162  MISS %:    60.2838   MPKI: 1.61028
L2C PREFETCH  ACCESS:       2420  HIT:       1278  MISS:       1142  HIT %:    52.8099  MISS %:    47.1901   MPKI: 0.00571
AGUS PREFETCH L1 MISS: 0
L2C DATA PREFETCH MPKI: 0.00571
L2C INSTRUCTION PREFETCH MPKI: 0
L2C WRITEBACK ACCESS:     891606  HIT:     834481  MISS:      57125  HIT %:     93.593  MISS %:    6.40698   MPKI: 0.285625
L2C LOAD TRANSLATION ACCESS:     117792  HIT:      52083  MISS:      65709  HIT %:    44.2161  MISS %:    55.7839   MPKI: 0.328545
L2C TRANSLATION FROM L1D PREFETCHER ACCESS:       5829  HIT:       4491  MISS:       1338  HIT %:    77.0458  MISS %:    22.9542   MPKI: 0.00669
L2C PREFETCH  REQUESTED:          0  ISSUED:          0  USEFUL:        832  USELESS:       1645
L2C USEFUL LOAD PREFETCHES:        832 PREFETCH ISSUED TO LOWER LEVEL:       1142  ACCURACY: 72.8546
L2C TIMELY PREFETCHES:        832 LATE PREFETCHES: 0 DROPPED PREFETCHES: 0
L2C PREFETCHES SAME FILL-ORIGIN LEVEL: 0 DIFFERENT FILL-ORIGIN LEVEL: 0
L2C AVERAGE MISS LATENCY: 59.0746 cycles
L2C RQ	ACCESS:    5059007	FORWARD:          0	MERGED:          0	TO_CACHE:    5058999
L2C WQ	ACCESS:     891606	FORWARD:          8	MERGED:          0	TO_CACHE:     891606
L2C PQ	ACCESS:       2420	FORWARD:          0	MERGED:          0	TO_CACHE:       2420

L2C Instructions Evicting Data 405081
L2C Translations Evicting Data 32888
L2C Data Evicting Data 429630
L2C Instructions Evicting Instructions 407158
L2C Translations Evicting Instructions 31333
L2C Data Evicting Instructions 378824
L2C Instructions Evicting Translations 31056
L2C Translations Evicting Translations 2826
L2C Data Evicting Translations 31670
L2C Dense regions hint from L2: 0
PSCL5 TOTAL     ACCESS:      80777  HIT:      80777  MISS:          0  HIT %:        100  MISS %:          0   MPKI: 0
PSCL5 LOAD TRANSLATION ACCESS:      78054  HIT:      78054  MISS:          0  HIT %:        100  MISS %:          0   MPKI: 0
PSCL5 TRANSLATION FROM L1D PREFETCHER ACCESS:       2723  HIT:       2723  MISS:          0  HIT %:        100  MISS %:          0   MPKI: 0
PSCL5 PREFETCH  REQUESTED:          0  ISSUED:          0  USEFUL:          0  USELESS:          0
PSCL5 USEFUL LOAD PREFETCHES:          0 PREFETCH ISSUED TO LOWER LEVEL:          0  ACCURACY: -nan
PSCL5 TIMELY PREFETCHES:          0 LATE PREFETCHES: 0 DROPPED PREFETCHES: 0
PSCL5 PREFETCHES SAME FILL-ORIGIN LEVEL: 0 DIFFERENT FILL-ORIGIN LEVEL: 0

PSCL4 TOTAL     ACCESS:      78331  HIT:      77772  MISS:        559  HIT %:    99.2864  MISS %:   0.713638   MPKI: 0.002795
PSCL4 LOAD TRANSLATION ACCESS:      75706  HIT:      75147  MISS:        559  HIT %:    99.2616  MISS %:   0.738383   MPKI: 0.002795
PSCL4 TRANSLATION FROM L1D PREFETCHER ACCESS:       2625  HIT:       2625  MISS:          0  HIT %:        100  MISS %:          0   MPKI: 0
PSCL4 PREFETCH  REQUESTED:          0  ISSUED:          0  USEFUL:          0  USELESS:          0
PSCL4 USEFUL LOAD PREFETCHES:          0 PREFETCH ISSUED TO LOWER LEVEL:          0  ACCURACY: -nan
PSCL4 TIMELY PREFETCHES:          0 LATE PREFETCHES: 0 DROPPED PREFETCHES: 0
PSCL4 PREFETCHES SAME FILL-ORIGIN LEVEL: 0 DIFFERENT FILL-ORIGIN LEVEL: 0

PSCL3 TOTAL     ACCESS:      73320  HIT:      62853  MISS:      10467  HIT %:    85.7242  MISS %:    14.2758   MPKI: 0.052335
PSCL3 LOAD TRANSLATION ACCESS:      71845  HIT:      61378  MISS:      10467  HIT %:    85.4311  MISS %:    14.5689   MPKI: 0.052335
PSCL3 TRANSLATION FROM L1D PREFETCHER ACCESS:       1475  HIT:       1475  MISS:          0  HIT %:        100  MISS %:          0   MPKI: 0
PSCL3 PREFETCH  REQUESTED:          0  ISSUED:          0  USEFUL:          0  USELESS:          0
PSCL3 USEFUL LOAD PREFETCHES:          0 PREFETCH ISSUED TO LOWER LEVEL:          0  ACCURACY: -nan
PSCL3 TIMELY PREFETCHES:          0 LATE PREFETCHES: 0 DROPPED PREFETCHES: 0
PSCL3 PREFETCHES SAME FILL-ORIGIN LEVEL: 0 DIFFERENT FILL-ORIGIN LEVEL: 0

PSCL2 TOTAL     ACCESS:      79007  HIT:      49937  MISS:      29070  HIT %:    63.2058  MISS %:    36.7942   MPKI: 0.14535
PSCL2 LOAD TRANSLATION ACCESS:      78258  HIT:      49188  MISS:      29070  HIT %:    62.8536  MISS %:    37.1464   MPKI: 0.14535
PSCL2 TRANSLATION FROM L1D PREFETCHER ACCESS:        749  HIT:        749  MISS:          0  HIT %:        100  MISS %:          0   MPKI: 0
PSCL2 PREFETCH  REQUESTED:          0  ISSUED:          0  USEFUL:          0  USELESS:          0
PSCL2 USEFUL LOAD PREFETCHES:          0 PREFETCH ISSUED TO LOWER LEVEL:          0  ACCURACY: -nan
PSCL2 TIMELY PREFETCHES:          0 LATE PREFETCHES: 0 DROPPED PREFETCHES: 0
PSCL2 PREFETCHES SAME FILL-ORIGIN LEVEL: 0 DIFFERENT FILL-ORIGIN LEVEL: 0

LLC TOTAL     ACCESS:    2242025  HIT:    1969923  MISS:     272102  HIT %:    87.8636  MISS %:    12.1364   MPKI: 1.36051
LLC LOAD      ACCESS:    1360221  HIT:    1214657  MISS:     145564  HIT %:    89.2985  MISS %:    10.7015   MPKI: 0.72782
LLC RFO       ACCESS:     322056  HIT:     205354  MISS:     116702  HIT %:    63.7634  MISS %:    36.2366   MPKI: 0.58351
LLC PREFETCH  ACCESS:       1142  HIT:        990  MISS:        152  HIT %:      86.69  MISS %:      13.31   MPKI: 0.00076
AGUS PREFETCH L1 MISS: 0
LLC WRITEBACK ACCESS:     491559  HIT:     489870  MISS:       1689  HIT %:    99.6564  MISS %:   0.343601   MPKI: 0.008445
LLC LOAD TRANSLATION ACCESS:      65709  HIT:      57810  MISS:       7899  HIT %:    87.9788  MISS %:    12.0212   MPKI: 0.039495
LLC TRANSLATION FROM L1D PREFETCHER ACCESS:       1338  HIT:       1242  MISS:         96  HIT %:    92.8251  MISS %:    7.17489   MPKI: 0.00048
LLC PREFETCH  REQUESTED:          0  ISSUED:          0  USEFUL:         53  USELESS:        177
LLC USEFUL LOAD PREFETCHES:         53 PREFETCH ISSUED TO LOWER LEVEL:        152  ACCURACY: 34.8684
LLC TIMELY PREFETCHES:         53 LATE PREFETCHES: 0 DROPPED PREFETCHES: 0
LLC PREFETCHES SAME FILL-ORIGIN LEVEL: 0 DIFFERENT FILL-ORIGIN LEVEL: 0
LLC AVERAGE MISS LATENCY: 199.437 cycles
LLC RQ	ACCESS:    1749324	FORWARD:          0	MERGED:          0	TO_CACHE:    1749324
LLC WQ	ACCESS:     491559	FORWARD:          0	MERGED:          0	TO_CACHE:     491559
LLC PQ	ACCESS:       1142	FORWARD:          0	MERGED:          0	TO_CACHE:       1142

LLC Dense regions hint to LLC: 0

RAW hits: 2298703
Loads Generated: 46053091
Loads sent to L1D: 43754388
Stores Generated: 20218330
Stores sent to L1D: 20218308
Major fault: 0 Minor fault: 4930
Allocated PAGES: 4930
Completed 
Accuracy : 92.1577
Number of unique groups: 3866956

DRAM Statistics
 CHANNEL 0
 RQ ROW_BUFFER_HIT:      59826  ROW_BUFFER_MISS:     210586
 DBUS_CONGESTED:         97
 WQ ROW_BUFFER_HIT:      27935  ROW_BUFFER_MISS:     158342  FULL:          0

 AVG_CONGESTED_CYCLE: 5
 All warmup complete: 2
Channel 0 Bank busy for read cycles: 0
Channel 0 Bank busy for write cycles: 0
Channel 0
Rank 0
0banks busy for read cycles: 346958584
0banks busy for write cycles: 78364
1banks busy for read cycles: 18233458
1banks busy for write cycles: 11226664
2banks busy for read cycles: 2982460
2banks busy for write cycles: 2738856
3banks busy for read cycles: 723706
3banks busy for write cycles: 1078859
4banks busy for read cycles: 202892
4banks busy for write cycles: 482970
5banks busy for read cycles: 103956
5banks busy for write cycles: 234168
6banks busy for read cycles: 117670
6banks busy for write cycles: 127442
7banks busy for read cycles: 181909
7banks busy for write cycles: 162780
8banks busy for read cycles: 642623
8banks busy for write cycles: 1107193

CPU 0 Branch Prediction Accuracy: 99.6389% MPKI: 0.649475 Average ROB Occupancy at Mispredict: 29.2427
Branch types
NOT_BRANCH: 164024582 82.0123%
BRANCH_DIRECT_JUMP: 3483278 1.74164%
BRANCH_INDIRECT: 12132846 6.06642%
BRANCH_CONDITIONAL: 14114305 7.05715%
BRANCH_DIRECT_CALL: 2660044 1.33002%
BRANCH_INDIRECT_CALL: 462477 0.231238%
BRANCH_RETURN: 3122508 1.56125%
BRANCH_OTHER: 0 0%

DRAM PAGES: 1048576
Allocated PAGES: 4930
