
*** ChampSim Multicore Out-of-Order Simulator ***

Warmup Instructions: 50000000
Simulation Instructions: 200000000
Number of CPUs: 1
LLC sets: 2048
LLC ways: 16
Off-chip DRAM Size: 4096 MB Channels: 1 Width: 64-bit Data Rate: 6400 MT/s
CPU 0 runs traces/spec2k17/srv_49.champsimtrace.xz
.xz
BTB has LRU replacement policy
ITLB has LRU replacement policy
DTLB has LRU replacement policy
STLB has LRU replacement policy
L1I has LRU replacement policy
L1D has LRU replacement policy
Initialize SRRIP state for L2C
Initialize DRRIP state for LLC
Heartbeat CPU 0 instructions: 10000002 cycles: 2893897 heartbeat IPC: 3.45555 cumulative IPC: 3.45555 (Simulation time: 0 hr 0 min 41 sec) 
Heartbeat CPU 0 instructions: 20000001 cycles: 5821198 heartbeat IPC: 3.41612 cumulative IPC: 3.43572 (Simulation time: 0 hr 1 min 24 sec) 
Heartbeat CPU 0 instructions: 30000003 cycles: 8734377 heartbeat IPC: 3.43268 cumulative IPC: 3.4347 (Simulation time: 0 hr 2 min 6 sec) 
*** Reached end of trace for Core: 0 Repeating trace: traces/spec2k17/srv_49.champsimtrace.xz
Heartbeat CPU 0 instructions: 40000000 cycles: 11623408 heartbeat IPC: 3.46137 cumulative IPC: 3.44133 (Simulation time: 0 hr 3 min 7 sec) 
Heartbeat CPU 0 instructions: 50000001 cycles: 14550488 heartbeat IPC: 3.41637 cumulative IPC: 3.43631 (Simulation time: 0 hr 3 min 47 sec) 

Warmup complete CPU 0 instructions: 50000001 cycles: 14550488 (Simulation time: 0 hr 3 min 47 sec) 

Heartbeat CPU 0 instructions: 60000003 cycles: 35638295 heartbeat IPC: 0.474208 cumulative IPC: 0.474208 (Simulation time: 0 hr 4 min 48 sec) 
*** Reached end of trace for Core: 0 Repeating trace: traces/spec2k17/srv_49.champsimtrace.xz
Heartbeat CPU 0 instructions: 70000001 cycles: 58567191 heartbeat IPC: 0.436131 cumulative IPC: 0.454373 (Simulation time: 0 hr 5 min 57 sec) 
Heartbeat CPU 0 instructions: 80000003 cycles: 81436857 heartbeat IPC: 0.437261 cumulative IPC: 0.448522 (Simulation time: 0 hr 7 min 25 sec) 
Heartbeat CPU 0 instructions: 90000000 cycles: 104044938 heartbeat IPC: 0.44232 cumulative IPC: 0.446955 (Simulation time: 0 hr 8 min 20 sec) 
*** Reached end of trace for Core: 0 Repeating trace: traces/spec2k17/srv_49.champsimtrace.xz
Heartbeat CPU 0 instructions: 100000000 cycles: 127231135 heartbeat IPC: 0.431291 cumulative IPC: 0.443732 (Simulation time: 0 hr 9 min 30 sec) 
Heartbeat CPU 0 instructions: 110000000 cycles: 148959616 heartbeat IPC: 0.460225 cumulative IPC: 0.446398 (Simulation time: 0 hr 11 min 27 sec) 
Heartbeat CPU 0 instructions: 120000003 cycles: 173054269 heartbeat IPC: 0.41503 cumulative IPC: 0.44163 (Simulation time: 0 hr 12 min 30 sec) 
*** Reached end of trace for Core: 0 Repeating trace: traces/spec2k17/srv_49.champsimtrace.xz
Heartbeat CPU 0 instructions: 130000001 cycles: 194023876 heartbeat IPC: 0.476881 cumulative IPC: 0.445749 (Simulation time: 0 hr 13 min 21 sec) 
Heartbeat CPU 0 instructions: 140000002 cycles: 216493369 heartbeat IPC: 0.445048 cumulative IPC: 0.445671 (Simulation time: 0 hr 14 min 6 sec) 
Heartbeat CPU 0 instructions: 150000002 cycles: 240985843 heartbeat IPC: 0.408289 cumulative IPC: 0.441627 (Simulation time: 0 hr 14 min 58 sec) 
*** Reached end of trace for Core: 0 Repeating trace: traces/spec2k17/srv_49.champsimtrace.xz
Heartbeat CPU 0 instructions: 160000003 cycles: 261708266 heartbeat IPC: 0.482569 cumulative IPC: 0.44506 (Simulation time: 0 hr 15 min 46 sec) 
Heartbeat CPU 0 instructions: 170000002 cycles: 284336908 heartbeat IPC: 0.441918 cumulative IPC: 0.444796 (Simulation time: 0 hr 16 min 35 sec) 
Heartbeat CPU 0 instructions: 180000000 cycles: 308273843 heartbeat IPC: 0.417764 cumulative IPC: 0.442593 (Simulation time: 0 hr 17 min 19 sec) 
*** Reached end of trace for Core: 0 Repeating trace: traces/spec2k17/srv_49.champsimtrace.xz
Heartbeat CPU 0 instructions: 190000003 cycles: 329509021 heartbeat IPC: 0.470917 cumulative IPC: 0.444503 (Simulation time: 0 hr 18 min 0 sec) 
Heartbeat CPU 0 instructions: 200000001 cycles: 351728525 heartbeat IPC: 0.450055 cumulative IPC: 0.444869 (Simulation time: 0 hr 18 min 47 sec) 
Heartbeat CPU 0 instructions: 210000000 cycles: 375034209 heartbeat IPC: 0.42908 cumulative IPC: 0.443848 (Simulation time: 0 hr 19 min 53 sec) 
*** Reached end of trace for Core: 0 Repeating trace: traces/spec2k17/srv_49.champsimtrace.xz
Heartbeat CPU 0 instructions: 220000000 cycles: 397181628 heartbeat IPC: 0.45152 cumulative IPC: 0.444292 (Simulation time: 0 hr 21 min 20 sec) 
Heartbeat CPU 0 instructions: 230000003 cycles: 418462640 heartbeat IPC: 0.469903 cumulative IPC: 0.445641 (Simulation time: 0 hr 22 min 5 sec) 
Heartbeat CPU 0 instructions: 240000002 cycles: 441779782 heartbeat IPC: 0.428869 cumulative IPC: 0.444726 (Simulation time: 0 hr 22 min 44 sec) 
*** Reached end of trace for Core: 0 Repeating trace: traces/spec2k17/srv_49.champsimtrace.xz
Heartbeat CPU 0 instructions: 250000002 cycles: 464402747 heartbeat IPC: 0.442029 cumulative IPC: 0.44459 (Simulation time: 0 hr 23 min 19 sec) 
Finished CPU 0 instructions: 200000001 cycles: 449852259 cumulative IPC: 0.44459 (Simulation time: 0 hr 23 min 19 sec) 

ChampSim completed all CPUs

Region of Interest Statistics

CPU 0 cumulative IPC: 0.44459 instructions: 200000001 cycles: 449852259
ITLB TOTAL     ACCESS:   34599143  HIT:   33558055  MISS:    1041088  HIT %:     96.991  MISS %:      3.009   MPKI: 5.20544
ITLB LOAD TRANSLATION ACCESS:   34599143  HIT:   33558055  MISS:    1041088  HIT %:     96.991  MISS %:      3.009   MPKI: 5.20544
ITLB PREFETCH  REQUESTED:          0  ISSUED:          0  USEFUL:          0  USELESS:          0
ITLB USEFUL LOAD PREFETCHES:          0 PREFETCH ISSUED TO LOWER LEVEL:          0  ACCURACY: -nan
ITLB TIMELY PREFETCHES:          0 LATE PREFETCHES: 0 DROPPED PREFETCHES: 0
ITLB PREFETCHES SAME FILL-ORIGIN LEVEL: 0 DIFFERENT FILL-ORIGIN LEVEL: 0
ITLB AVERAGE MISS LATENCY: 10.0942 cycles
ITLB RQ	ACCESS:   39429738	FORWARD:          0	MERGED:    4537325	TO_CACHE:   34892413

DTLB TOTAL     ACCESS:   43076937  HIT:   42020696  MISS:    1056241  HIT %:     97.548  MISS %:    2.45199   MPKI: 5.2812
DTLB LOAD TRANSLATION ACCESS:   43076937  HIT:   42020696  MISS:    1056241  HIT %:     97.548  MISS %:    2.45199   MPKI: 5.2812
DTLB PREFETCH  REQUESTED:          0  ISSUED:          0  USEFUL:          0  USELESS:          0
DTLB USEFUL LOAD PREFETCHES:          0 PREFETCH ISSUED TO LOWER LEVEL:          0  ACCURACY: -nan
DTLB TIMELY PREFETCHES:          0 LATE PREFETCHES: 0 DROPPED PREFETCHES: 0
DTLB PREFETCHES SAME FILL-ORIGIN LEVEL: 0 DIFFERENT FILL-ORIGIN LEVEL: 0
DTLB AVERAGE MISS LATENCY: 14.9753 cycles
DTLB RQ	ACCESS:   57831074	FORWARD:          0	MERGED:   14681524	TO_CACHE:   43149550

STLB TOTAL     ACCESS:    3853762  HIT:    3765767  MISS:      87995  HIT %:    97.7166  MISS %:    2.28335   MPKI: 0.439975
STLB LOAD TRANSLATION ACCESS:    2097329  HIT:    2009459  MISS:      87870  HIT %:    95.8104  MISS %:    4.18961   MPKI: 0.43935
STLB TRANSLATION FROM L1D PREFETCHER ACCESS:    1756433  HIT:    1756308  MISS:        125  HIT %:    99.9929  MISS %:  0.0071167   MPKI: 0.000625
STLB PREFETCH  REQUESTED:          0  ISSUED:          0  USEFUL:        112  USELESS:         12
STLB USEFUL LOAD PREFETCHES:        112 PREFETCH ISSUED TO LOWER LEVEL:          0  ACCURACY: inf
STLB TIMELY PREFETCHES:        112 LATE PREFETCHES: 0 DROPPED PREFETCHES: 2520
STLB PREFETCHES SAME FILL-ORIGIN LEVEL: 0 DIFFERENT FILL-ORIGIN LEVEL: 0
STLB AVERAGE MISS LATENCY: 84.8035 cycles
STLB RQ	ACCESS:    4142441	FORWARD:          0	MERGED:     286156	TO_CACHE:    3856285

STLB Hit, L1D data hit: 0
STLB Hit, L2C data hit: 0
STLB Hit, LLC data hit: 0
STLB Hit, LLC data miss: 0
STLB STLB hints to L2: 0
L1D TOTAL     ACCESS:   57891411  HIT:   55668248  MISS:    2223163  HIT %:    96.1598  MISS %:    3.84023   MPKI: 11.1158
L1D LOAD      ACCESS:   34868078  HIT:   33369668  MISS:    1498410  HIT %:    95.7026  MISS %:    4.29737   MPKI: 7.49205
L1D RFO       ACCESS:   20983115  HIT:   20260109  MISS:     723006  HIT %:    96.5543  MISS %:    3.44566   MPKI: 3.61503
L1D PREFETCH  ACCESS:    2040218  HIT:    2038471  MISS:       1747  HIT %:    99.9144  MISS %:  0.0856281   MPKI: 0.008735
AGUS PREFETCH L1 MISS: 0
L1D PREFETCH  REQUESTED:    4558164  ISSUED:    4558160  USEFUL:       1287  USELESS:        460
L1D USEFUL LOAD PREFETCHES:       1287 PREFETCH ISSUED TO LOWER LEVEL:       2135  ACCURACY: 60.281
L1D TIMELY PREFETCHES:       1287 LATE PREFETCHES: 388 DROPPED PREFETCHES: 2577
L1D PREFETCHES SAME FILL-ORIGIN LEVEL: 2135 DIFFERENT FILL-ORIGIN LEVEL: 0
L1D AVERAGE MISS LATENCY: 67264.5 cycles
L1D RQ	ACCESS:   50585067	FORWARD:          0	MERGED:   15380346	TO_CACHE:   35000601
L1D WQ	ACCESS:   23216834	FORWARD:     204127	MERGED:     386361	TO_CACHE:   22830473
L1D PQ	ACCESS:    2513048	FORWARD:          0	MERGED:     467929	TO_CACHE:    2045112

L1D UNIQUE REGIONS ACCESSED: 0
L1D REGIONS CONFLICTS: 0
L1D Cross Page Prefetch Requests: 1899747
L1D Same Page Prefetch Requests: 803705
L1D ROI Sum of L1D PQ occupancy: 28278635
L1D PREFETCHES PUSHED FROM L2C: 0
L1I TOTAL     ACCESS:   38831050  HIT:   34551485  MISS:    4279565  HIT %:     88.979  MISS %:     11.021   MPKI: 21.3978
L1I LOAD      ACCESS:   38831050  HIT:   34551485  MISS:    4279565  HIT %:     88.979  MISS %:     11.021   MPKI: 21.3978
L1I PREFETCH  REQUESTED:          0  ISSUED:          0  USEFUL:          0  USELESS:          0
L1I USEFUL LOAD PREFETCHES:          0 PREFETCH ISSUED TO LOWER LEVEL:          0  ACCURACY: -nan
L1I TIMELY PREFETCHES:          0 LATE PREFETCHES: 0 DROPPED PREFETCHES: 0
L1I PREFETCHES SAME FILL-ORIGIN LEVEL: 0 DIFFERENT FILL-ORIGIN LEVEL: 0
L1I AVERAGE MISS LATENCY: 21.8638 cycles
L1I RQ	ACCESS:   60391439	FORWARD:          0	MERGED:   20961701	TO_CACHE:   39429738

BTB TOTAL     ACCESS:   31621999  HIT:   25926549  MISS:    5695450  HIT %:     81.989  MISS %:     18.011   MPKI: 28.4772
BTB BRANCH_DIRECT_JUMP	ACCESS:    3058145  HIT:    2682154  MISS:     375991
BTB BRANCH_INDIRECT	ACCESS:   12869399  HIT:   10666785  MISS:    2202614
BTB BRANCH_CONDITIONAL	ACCESS:    8093722  HIT:    7632458  MISS:     461264
BTB BRANCH_DIRECT_CALL	ACCESS:    2838199  HIT:    2154241  MISS:     683958
BTB BRANCH_INDIRECT_CALL	ACCESS:     962232  HIT:     678614  MISS:     283618
BTB BRANCH_RETURN	ACCESS:    3800302  HIT:    2112297  MISS:    1688005
BTB BRANCH_OTHER ACCESS:          0  HIT:          0  MISS:          0

L2C TOTAL     ACCESS:    7751934  HIT:    5621747  MISS:    2130187  HIT %:    72.5206  MISS %:    27.4794   MPKI: 10.6509
L2C LOAD      ACCESS:    5777548  HIT:    4191340  MISS:    1586208  HIT %:    72.5453  MISS %:    27.4547   MPKI: 7.93104
L2C DATA LOAD MPKI: 2.93789
L2C INSTRUCTION LOAD MPKI: 4.99315
L2C RFO       ACCESS:     723006  HIT:     323608  MISS:     399398  HIT %:    44.7587  MISS %:    55.2413   MPKI: 1.99699
L2C PREFETCH  ACCESS:       2135  HIT:       1591  MISS:        544  HIT %:    74.5199  MISS %:    25.4801   MPKI: 0.00272
AGUS PREFETCH L1 MISS: 0
L2C DATA PREFETCH MPKI: 0.00272
L2C INSTRUCTION PREFETCH MPKI: 0
L2C WRITEBACK ACCESS:    1117635  HIT:    1046599  MISS:      71036  HIT %:    93.6441  MISS %:    6.35592   MPKI: 0.35518
L2C LOAD TRANSLATION ACCESS:     128322  HIT:      55614  MISS:      72708  HIT %:    43.3394  MISS %:    56.6606   MPKI: 0.36354
L2C TRANSLATION FROM L1D PREFETCHER ACCESS:       3288  HIT:       2995  MISS:        293  HIT %:    91.0888  MISS %:    8.91119   MPKI: 0.001465
L2C PREFETCH  REQUESTED:          0  ISSUED:          0  USEFUL:        237  USELESS:        593
L2C USEFUL LOAD PREFETCHES:        237 PREFETCH ISSUED TO LOWER LEVEL:        544  ACCURACY: 43.5662
L2C TIMELY PREFETCHES:        237 LATE PREFETCHES: 0 DROPPED PREFETCHES: 0
L2C PREFETCHES SAME FILL-ORIGIN LEVEL: 0 DIFFERENT FILL-ORIGIN LEVEL: 0
L2C AVERAGE MISS LATENCY: 66.0045 cycles
L2C RQ	ACCESS:    6632203	FORWARD:          0	MERGED:          0	TO_CACHE:    6632164
L2C WQ	ACCESS:    1117635	FORWARD:         39	MERGED:          0	TO_CACHE:    1117635
L2C PQ	ACCESS:       2135	FORWARD:          0	MERGED:          0	TO_CACHE:       2135

L2C Instructions Evicting Data 477975
L2C Translations Evicting Data 39015
L2C Data Evicting Data 504668
L2C Instructions Evicting Instructions 489230
L2C Translations Evicting Instructions 31333
L2C Data Evicting Instructions 445570
L2C Instructions Evicting Translations 31425
L2C Translations Evicting Translations 2653
L2C Data Evicting Translations 37282
L2C Dense regions hint from L2: 0
PSCL5 TOTAL     ACCESS:      90509  HIT:      90509  MISS:          0  HIT %:        100  MISS %:          0   MPKI: 0
PSCL5 LOAD TRANSLATION ACCESS:      87870  HIT:      87870  MISS:          0  HIT %:        100  MISS %:          0   MPKI: 0
PSCL5 TRANSLATION FROM L1D PREFETCHER ACCESS:       2639  HIT:       2639  MISS:          0  HIT %:        100  MISS %:          0   MPKI: 0
PSCL5 PREFETCH  REQUESTED:          0  ISSUED:          0  USEFUL:          0  USELESS:          0
PSCL5 USEFUL LOAD PREFETCHES:          0 PREFETCH ISSUED TO LOWER LEVEL:          0  ACCURACY: -nan
PSCL5 TIMELY PREFETCHES:          0 LATE PREFETCHES: 0 DROPPED PREFETCHES: 0
PSCL5 PREFETCHES SAME FILL-ORIGIN LEVEL: 0 DIFFERENT FILL-ORIGIN LEVEL: 0

PSCL4 TOTAL     ACCESS:      89079  HIT:      88451  MISS:        628  HIT %:     99.295  MISS %:   0.704992   MPKI: 0.00314
PSCL4 LOAD TRANSLATION ACCESS:      86448  HIT:      85820  MISS:        628  HIT %:    99.2736  MISS %:   0.726448   MPKI: 0.00314
PSCL4 TRANSLATION FROM L1D PREFETCHER ACCESS:       2631  HIT:       2631  MISS:          0  HIT %:        100  MISS %:          0   MPKI: 0
PSCL4 PREFETCH  REQUESTED:          0  ISSUED:          0  USEFUL:          0  USELESS:          0
PSCL4 USEFUL LOAD PREFETCHES:          0 PREFETCH ISSUED TO LOWER LEVEL:          0  ACCURACY: -nan
PSCL4 TIMELY PREFETCHES:          0 LATE PREFETCHES: 0 DROPPED PREFETCHES: 0
PSCL4 PREFETCHES SAME FILL-ORIGIN LEVEL: 0 DIFFERENT FILL-ORIGIN LEVEL: 0

PSCL3 TOTAL     ACCESS:      83712  HIT:      73718  MISS:       9994  HIT %:    88.0614  MISS %:    11.9386   MPKI: 0.04997
PSCL3 LOAD TRANSLATION ACCESS:      81314  HIT:      71320  MISS:       9994  HIT %:    87.7094  MISS %:    12.2906   MPKI: 0.04997
PSCL3 TRANSLATION FROM L1D PREFETCHER ACCESS:       2398  HIT:       2398  MISS:          0  HIT %:        100  MISS %:          0   MPKI: 0
PSCL3 PREFETCH  REQUESTED:          0  ISSUED:          0  USEFUL:          0  USELESS:          0
PSCL3 USEFUL LOAD PREFETCHES:          0 PREFETCH ISSUED TO LOWER LEVEL:          0  ACCURACY: -nan
PSCL3 TIMELY PREFETCHES:          0 LATE PREFETCHES: 0 DROPPED PREFETCHES: 0
PSCL3 PREFETCHES SAME FILL-ORIGIN LEVEL: 0 DIFFERENT FILL-ORIGIN LEVEL: 0

PSCL2 TOTAL     ACCESS:      89406  HIT:      59455  MISS:      29951  HIT %:       66.5  MISS %:       33.5   MPKI: 0.149755
PSCL2 LOAD TRANSLATION ACCESS:      87942  HIT:      57991  MISS:      29951  HIT %:    65.9423  MISS %:    34.0577   MPKI: 0.149755
PSCL2 TRANSLATION FROM L1D PREFETCHER ACCESS:       1464  HIT:       1464  MISS:          0  HIT %:        100  MISS %:          0   MPKI: 0
PSCL2 PREFETCH  REQUESTED:          0  ISSUED:          0  USEFUL:          0  USELESS:          0
PSCL2 USEFUL LOAD PREFETCHES:          0 PREFETCH ISSUED TO LOWER LEVEL:          0  ACCURACY: -nan
PSCL2 TIMELY PREFETCHES:          0 LATE PREFETCHES: 0 DROPPED PREFETCHES: 0
PSCL2 PREFETCHES SAME FILL-ORIGIN LEVEL: 0 DIFFERENT FILL-ORIGIN LEVEL: 0

LLC TOTAL     ACCESS:    2611382  HIT:    2134638  MISS:     476744  HIT %:    81.7436  MISS %:    18.2564   MPKI: 2.38372
LLC LOAD      ACCESS:    1586208  HIT:    1327022  MISS:     259186  HIT %:      83.66  MISS %:      16.34   MPKI: 1.29593
LLC RFO       ACCESS:     399398  HIT:     201475  MISS:     197923  HIT %:    50.4447  MISS %:    49.5553   MPKI: 0.989615
LLC PREFETCH  ACCESS:        544  HIT:        438  MISS:        106  HIT %:    80.5147  MISS %:    19.4853   MPKI: 0.00053
AGUS PREFETCH L1 MISS: 0
LLC WRITEBACK ACCESS:     552231  HIT:     548517  MISS:       3714  HIT %:    99.3275  MISS %:   0.672545   MPKI: 0.01857
LLC LOAD TRANSLATION ACCESS:      72708  HIT:      57001  MISS:      15707  HIT %:    78.3972  MISS %:    21.6028   MPKI: 0.078535
LLC TRANSLATION FROM L1D PREFETCHER ACCESS:        293  HIT:        185  MISS:        108  HIT %:    63.1399  MISS %:    36.8601   MPKI: 0.00054
LLC PREFETCH  REQUESTED:          0  ISSUED:          0  USEFUL:         48  USELESS:        157
LLC USEFUL LOAD PREFETCHES:         48 PREFETCH ISSUED TO LOWER LEVEL:        106  ACCURACY: 45.283
LLC TIMELY PREFETCHES:         48 LATE PREFETCHES: 0 DROPPED PREFETCHES: 0
LLC PREFETCHES SAME FILL-ORIGIN LEVEL: 0 DIFFERENT FILL-ORIGIN LEVEL: 0
LLC AVERAGE MISS LATENCY: 165.343 cycles
LLC RQ	ACCESS:    2058607	FORWARD:          0	MERGED:          0	TO_CACHE:    2058607
LLC WQ	ACCESS:     552231	FORWARD:          0	MERGED:          0	TO_CACHE:     552231
LLC PQ	ACCESS:        544	FORWARD:          0	MERGED:          0	TO_CACHE:        544

LLC Dense regions hint to LLC: 0

RAW hits: 2567380
Loads Generated: 53152447
Loads sent to L1D: 50585067
Stores Generated: 23216828
Stores sent to L1D: 23216834
Major fault: 0 Minor fault: 6099
Allocated PAGES: 6099
Completed 
Accuracy : 89.8804
Number of unique groups: 4052611

DRAM Statistics
 CHANNEL 0
 RQ ROW_BUFFER_HIT:     115195  ROW_BUFFER_MISS:     357835
 DBUS_CONGESTED:        200
 WQ ROW_BUFFER_HIT:      51289  ROW_BUFFER_MISS:     225315  FULL:          0

 AVG_CONGESTED_CYCLE: 4
 All warmup complete: 2
Channel 0 Bank busy for read cycles: 0
Channel 0 Bank busy for write cycles: 0
Channel 0
Rank 0
0banks busy for read cycles: 379981942
0banks busy for write cycles: 127328
1banks busy for read cycles: 31420224
1banks busy for write cycles: 18155178
2banks busy for read cycles: 7445792
2banks busy for write cycles: 5496035
3banks busy for read cycles: 1245917
3banks busy for write cycles: 1711488
4banks busy for read cycles: 318885
4banks busy for write cycles: 760484
5banks busy for read cycles: 208698
5banks busy for write cycles: 435676
6banks busy for read cycles: 184753
6banks busy for write cycles: 261243
7banks busy for read cycles: 195897
7banks busy for write cycles: 265589
8banks busy for read cycles: 593720
8banks busy for write cycles: 1043411

CPU 0 Branch Prediction Accuracy: 99.5147% MPKI: 0.87397 Average ROB Occupancy at Mispredict: 23.2937
Branch types
NOT_BRANCH: 163984830 81.9924%
BRANCH_DIRECT_JUMP: 3058145 1.52907%
BRANCH_INDIRECT: 12869399 6.4347%
BRANCH_CONDITIONAL: 12486555 6.24328%
BRANCH_DIRECT_CALL: 2838199 1.4191%
BRANCH_INDIRECT_CALL: 962232 0.481116%
BRANCH_RETURN: 3800302 1.90015%
BRANCH_OTHER: 0 0%

DRAM PAGES: 1048576
Allocated PAGES: 6099
