
*** ChampSim Multicore Out-of-Order Simulator ***

Warmup Instructions: 50000000
Simulation Instructions: 200000000
Number of CPUs: 1
LLC sets: 2048
LLC ways: 16
Off-chip DRAM Size: 4096 MB Channels: 1 Width: 64-bit Data Rate: 6400 MT/s
CPU 0 runs traces/spec2k17/srv_7.champsimtrace.xz
.xz
BTB has LRU replacement policy
ITLB has LRU replacement policy
DTLB has LRU replacement policy
STLB has LRU replacement policy
L1I has LRU replacement policy
L1D has LRU replacement policy
Initialize SRRIP state for L2C
Initialize DRRIP state for LLC
Heartbeat CPU 0 instructions: 10000001 cycles: 2779669 heartbeat IPC: 3.59755 cumulative IPC: 3.59755 (Simulation time: 0 hr 0 min 44 sec) 
Heartbeat CPU 0 instructions: 20000001 cycles: 5554917 heartbeat IPC: 3.60328 cumulative IPC: 3.60041 (Simulation time: 0 hr 1 min 23 sec) 
Heartbeat CPU 0 instructions: 30000001 cycles: 8328869 heartbeat IPC: 3.60496 cumulative IPC: 3.60193 (Simulation time: 0 hr 1 min 53 sec) 
*** Reached end of trace for Core: 0 Repeating trace: traces/spec2k17/srv_7.champsimtrace.xz
Heartbeat CPU 0 instructions: 40000000 cycles: 11104161 heartbeat IPC: 3.60322 cumulative IPC: 3.60225 (Simulation time: 0 hr 2 min 24 sec) 
Heartbeat CPU 0 instructions: 50000000 cycles: 13879714 heartbeat IPC: 3.60289 cumulative IPC: 3.60238 (Simulation time: 0 hr 3 min 5 sec) 

Warmup complete CPU 0 instructions: 50000004 cycles: 13879715 (Simulation time: 0 hr 3 min 5 sec) 

Heartbeat CPU 0 instructions: 60000000 cycles: 36579832 heartbeat IPC: 0.440526 cumulative IPC: 0.440526 (Simulation time: 0 hr 3 min 48 sec) 
*** Reached end of trace for Core: 0 Repeating trace: traces/spec2k17/srv_7.champsimtrace.xz
Heartbeat CPU 0 instructions: 70000000 cycles: 59711549 heartbeat IPC: 0.432307 cumulative IPC: 0.436378 (Simulation time: 0 hr 4 min 26 sec) 
Heartbeat CPU 0 instructions: 80000003 cycles: 82567795 heartbeat IPC: 0.437517 cumulative IPC: 0.436757 (Simulation time: 0 hr 5 min 14 sec) 
Heartbeat CPU 0 instructions: 90000001 cycles: 105283938 heartbeat IPC: 0.440215 cumulative IPC: 0.437616 (Simulation time: 0 hr 6 min 1 sec) 
*** Reached end of trace for Core: 0 Repeating trace: traces/spec2k17/srv_7.champsimtrace.xz
Heartbeat CPU 0 instructions: 100000001 cycles: 128084607 heartbeat IPC: 0.438584 cumulative IPC: 0.43781 (Simulation time: 0 hr 6 min 59 sec) 
Heartbeat CPU 0 instructions: 110000000 cycles: 151021113 heartbeat IPC: 0.435986 cumulative IPC: 0.437505 (Simulation time: 0 hr 8 min 9 sec) 
Heartbeat CPU 0 instructions: 120000003 cycles: 173827494 heartbeat IPC: 0.438474 cumulative IPC: 0.437643 (Simulation time: 0 hr 9 min 16 sec) 
*** Reached end of trace for Core: 0 Repeating trace: traces/spec2k17/srv_7.champsimtrace.xz
Heartbeat CPU 0 instructions: 130000002 cycles: 196479511 heartbeat IPC: 0.441462 cumulative IPC: 0.438117 (Simulation time: 0 hr 11 min 2 sec) 
Heartbeat CPU 0 instructions: 140000001 cycles: 219462138 heartbeat IPC: 0.435111 cumulative IPC: 0.437781 (Simulation time: 0 hr 12 min 15 sec) 
Heartbeat CPU 0 instructions: 150000000 cycles: 242270607 heartbeat IPC: 0.438434 cumulative IPC: 0.437846 (Simulation time: 0 hr 13 min 22 sec) 
*** Reached end of trace for Core: 0 Repeating trace: traces/spec2k17/srv_7.champsimtrace.xz
Heartbeat CPU 0 instructions: 160000003 cycles: 264988530 heartbeat IPC: 0.440181 cumulative IPC: 0.438057 (Simulation time: 0 hr 14 min 29 sec) 
Heartbeat CPU 0 instructions: 170000002 cycles: 287736566 heartbeat IPC: 0.439598 cumulative IPC: 0.438185 (Simulation time: 0 hr 15 min 40 sec) 
Heartbeat CPU 0 instructions: 180000002 cycles: 310602825 heartbeat IPC: 0.437326 cumulative IPC: 0.438119 (Simulation time: 0 hr 16 min 39 sec) 
*** Reached end of trace for Core: 0 Repeating trace: traces/spec2k17/srv_7.champsimtrace.xz
Heartbeat CPU 0 instructions: 190000003 cycles: 333247303 heartbeat IPC: 0.441609 cumulative IPC: 0.438366 (Simulation time: 0 hr 17 min 24 sec) 
Heartbeat CPU 0 instructions: 200000001 cycles: 356270360 heartbeat IPC: 0.434347 cumulative IPC: 0.438096 (Simulation time: 0 hr 18 min 10 sec) 
Heartbeat CPU 0 instructions: 210000003 cycles: 379030779 heartbeat IPC: 0.439359 cumulative IPC: 0.438175 (Simulation time: 0 hr 19 min 6 sec) 
*** Reached end of trace for Core: 0 Repeating trace: traces/spec2k17/srv_7.champsimtrace.xz
Heartbeat CPU 0 instructions: 220000000 cycles: 401792433 heartbeat IPC: 0.439335 cumulative IPC: 0.438243 (Simulation time: 0 hr 20 min 1 sec) 
Heartbeat CPU 0 instructions: 230000000 cycles: 424630025 heartbeat IPC: 0.437875 cumulative IPC: 0.438222 (Simulation time: 0 hr 20 min 44 sec) 
Heartbeat CPU 0 instructions: 240000001 cycles: 447140514 heartbeat IPC: 0.444237 cumulative IPC: 0.438535 (Simulation time: 0 hr 21 min 22 sec) 
*** Reached end of trace for Core: 0 Repeating trace: traces/spec2k17/srv_7.champsimtrace.xz
Heartbeat CPU 0 instructions: 250000001 cycles: 470094933 heartbeat IPC: 0.435646 cumulative IPC: 0.43839 (Simulation time: 0 hr 21 min 57 sec) 
Finished CPU 0 instructions: 200000003 cycles: 456215224 cumulative IPC: 0.43839 (Simulation time: 0 hr 21 min 57 sec) 

ChampSim completed all CPUs

Region of Interest Statistics

CPU 0 cumulative IPC: 0.43839 instructions: 200000003 cycles: 456215224
ITLB TOTAL     ACCESS:   31422020  HIT:   30603973  MISS:     818047  HIT %:    97.3966  MISS %:    2.60342   MPKI: 4.09023
ITLB LOAD TRANSLATION ACCESS:   31422020  HIT:   30603973  MISS:     818047  HIT %:    97.3966  MISS %:    2.60342   MPKI: 4.09023
ITLB PREFETCH  REQUESTED:          0  ISSUED:          0  USEFUL:          0  USELESS:          0
ITLB USEFUL LOAD PREFETCHES:          0 PREFETCH ISSUED TO LOWER LEVEL:          0  ACCURACY: -nan
ITLB TIMELY PREFETCHES:          0 LATE PREFETCHES: 0 DROPPED PREFETCHES: 0
ITLB PREFETCHES SAME FILL-ORIGIN LEVEL: 0 DIFFERENT FILL-ORIGIN LEVEL: 0
ITLB AVERAGE MISS LATENCY: 15.1111 cycles
ITLB RQ	ACCESS:   38274516	FORWARD:          0	MERGED:    6657668	TO_CACHE:   31616848

DTLB TOTAL     ACCESS:   37112783  HIT:   34746366  MISS:    2366417  HIT %:    93.6237  MISS %:    6.37629   MPKI: 11.8321
DTLB LOAD TRANSLATION ACCESS:   37112783  HIT:   34746366  MISS:    2366417  HIT %:    93.6237  MISS %:    6.37629   MPKI: 11.8321
DTLB PREFETCH  REQUESTED:          0  ISSUED:          0  USEFUL:          0  USELESS:          0
DTLB USEFUL LOAD PREFETCHES:          0 PREFETCH ISSUED TO LOWER LEVEL:          0  ACCURACY: -nan
DTLB TIMELY PREFETCHES:          0 LATE PREFETCHES: 0 DROPPED PREFETCHES: 0
DTLB PREFETCHES SAME FILL-ORIGIN LEVEL: 0 DIFFERENT FILL-ORIGIN LEVEL: 0
DTLB AVERAGE MISS LATENCY: 14.7651 cycles
DTLB RQ	ACCESS:   47658360	FORWARD:          0	MERGED:   10400868	TO_CACHE:   37257492

STLB TOTAL     ACCESS:    5871344  HIT:    5445883  MISS:     425461  HIT %:    92.7536  MISS %:     7.2464   MPKI: 2.1273
STLB LOAD TRANSLATION ACCESS:    3184464  HIT:    2759753  MISS:     424711  HIT %:     86.663  MISS %:     13.337   MPKI: 2.12355
STLB TRANSLATION FROM L1D PREFETCHER ACCESS:    2686880  HIT:    2686130  MISS:        750  HIT %:    99.9721  MISS %:  0.0279134   MPKI: 0.00375
STLB PREFETCH  REQUESTED:          0  ISSUED:          0  USEFUL:        640  USELESS:        110
STLB USEFUL LOAD PREFETCHES:        640 PREFETCH ISSUED TO LOWER LEVEL:          0  ACCURACY: inf
STLB TIMELY PREFETCHES:        640 LATE PREFETCHES: 252 DROPPED PREFETCHES: 1726
STLB PREFETCHES SAME FILL-ORIGIN LEVEL: 0 DIFFERENT FILL-ORIGIN LEVEL: 0
STLB AVERAGE MISS LATENCY: 44.396 cycles
STLB RQ	ACCESS:    6597671	FORWARD:          0	MERGED:     724232	TO_CACHE:    5873439

STLB Hit, L1D data hit: 0
STLB Hit, L2C data hit: 0
STLB Hit, LLC data hit: 0
STLB Hit, LLC data miss: 0
STLB STLB hints to L2: 0
L1D TOTAL     ACCESS:   50481714  HIT:   48004925  MISS:    2476789  HIT %:    95.0937  MISS %:    4.90631   MPKI: 12.3839
L1D LOAD      ACCESS:   27467057  HIT:   25357944  MISS:    2109113  HIT %:    92.3213  MISS %:     7.6787   MPKI: 10.5456
L1D RFO       ACCESS:   19620373  HIT:   19263331  MISS:     357042  HIT %:    98.1802  MISS %:    1.81975   MPKI: 1.78521
L1D PREFETCH  ACCESS:    3394284  HIT:    3383650  MISS:      10634  HIT %:    99.6867  MISS %:   0.313291   MPKI: 0.05317
AGUS PREFETCH L1 MISS: 0
L1D PREFETCH  REQUESTED:    6933749  ISSUED:    6933741  USEFUL:       9746  USELESS:        888
L1D USEFUL LOAD PREFETCHES:       9746 PREFETCH ISSUED TO LOWER LEVEL:      16355  ACCURACY: 59.5903
L1D TIMELY PREFETCHES:       9746 LATE PREFETCHES: 5558 DROPPED PREFETCHES: 1765
L1D PREFETCHES SAME FILL-ORIGIN LEVEL: 16355 DIFFERENT FILL-ORIGIN LEVEL: 0
L1D AVERAGE MISS LATENCY: 658490 cycles
L1D RQ	ACCESS:   42049723	FORWARD:          0	MERGED:   14191483	TO_CACHE:   27610927
L1D WQ	ACCESS:   20434181	FORWARD:     249460	MERGED:     386748	TO_CACHE:   20047433
L1D PQ	ACCESS:    3520534	FORWARD:          0	MERGED:     105180	TO_CACHE:    3413207

L1D UNIQUE REGIONS ACCESSED: 0
L1D REGIONS CONFLICTS: 0
L1D Cross Page Prefetch Requests: 3022077
L1D Same Page Prefetch Requests: 721747
L1D ROI Sum of L1D PQ occupancy: 47493998
L1D PREFETCHES PUSHED FROM L2C: 0
L1I TOTAL     ACCESS:   36590934  HIT:   31497782  MISS:    5093152  HIT %:    86.0808  MISS %:    13.9192   MPKI: 25.4658
L1I LOAD      ACCESS:   36590934  HIT:   31497782  MISS:    5093152  HIT %:    86.0808  MISS %:    13.9192   MPKI: 25.4658
L1I PREFETCH  REQUESTED:          0  ISSUED:          0  USEFUL:          0  USELESS:          0
L1I USEFUL LOAD PREFETCHES:          0 PREFETCH ISSUED TO LOWER LEVEL:          0  ACCURACY: -nan
L1I TIMELY PREFETCHES:          0 LATE PREFETCHES: 0 DROPPED PREFETCHES: 0
L1I PREFETCHES SAME FILL-ORIGIN LEVEL: 0 DIFFERENT FILL-ORIGIN LEVEL: 0
L1I AVERAGE MISS LATENCY: 26.5448 cycles
L1I RQ	ACCESS:   57205416	FORWARD:          0	MERGED:   18930900	TO_CACHE:   38274516

BTB TOTAL     ACCESS:   22366378  HIT:   17715697  MISS:    4650681  HIT %:    79.2068  MISS %:    20.7932   MPKI: 23.2534
BTB BRANCH_DIRECT_JUMP	ACCESS:    1867626  HIT:    1582862  MISS:     284764
BTB BRANCH_INDIRECT	ACCESS:    9379894  HIT:    7206637  MISS:    2173257
BTB BRANCH_CONDITIONAL	ACCESS:    4614315  HIT:    4180590  MISS:     433725
BTB BRANCH_DIRECT_CALL	ACCESS:    2585717  HIT:    2040743  MISS:     544974
BTB BRANCH_INDIRECT_CALL	ACCESS:     665918  HIT:     607579  MISS:      58339
BTB BRANCH_RETURN	ACCESS:    3252908  HIT:    2097286  MISS:    1155622
BTB BRANCH_OTHER ACCESS:          0  HIT:          0  MISS:          0

L2C TOTAL     ACCESS:    9146498  HIT:    5645118  MISS:    3501380  HIT %:    61.7189  MISS %:    38.2811   MPKI: 17.5069
L2C LOAD      ACCESS:    7196627  HIT:    4141955  MISS:    3054672  HIT %:    57.5541  MISS %:    42.4459   MPKI: 15.2734
L2C DATA LOAD MPKI: 5.0753
L2C INSTRUCTION LOAD MPKI: 10.1981
L2C RFO       ACCESS:     356878  HIT:     184577  MISS:     172301  HIT %:    51.7199  MISS %:    48.2801   MPKI: 0.861505
L2C PREFETCH  ACCESS:      16355  HIT:      12906  MISS:       3449  HIT %:    78.9116  MISS %:    21.0884   MPKI: 0.017245
AGUS PREFETCH L1 MISS: 0
L2C DATA PREFETCH MPKI: 0.017245
L2C INSTRUCTION PREFETCH MPKI: 0
L2C WRITEBACK ACCESS:    1016481  HIT:     959006  MISS:      57475  HIT %:    94.3457  MISS %:    5.65431   MPKI: 0.287375
L2C LOAD TRANSLATION ACCESS:     556630  HIT:     344397  MISS:     212233  HIT %:    61.8718  MISS %:    38.1282   MPKI: 1.06116
L2C TRANSLATION FROM L1D PREFETCHER ACCESS:       3527  HIT:       2277  MISS:       1250  HIT %:    64.5591  MISS %:    35.4409   MPKI: 0.00625
L2C PREFETCH  REQUESTED:          0  ISSUED:          0  USEFUL:       1777  USELESS:       2918
L2C USEFUL LOAD PREFETCHES:       1777 PREFETCH ISSUED TO LOWER LEVEL:       3449  ACCURACY: 51.5222
L2C TIMELY PREFETCHES:       1777 LATE PREFETCHES: 0 DROPPED PREFETCHES: 0
L2C PREFETCHES SAME FILL-ORIGIN LEVEL: 0 DIFFERENT FILL-ORIGIN LEVEL: 0
L2C AVERAGE MISS LATENCY: 43.5742 cycles
L2C RQ	ACCESS:    8113742	FORWARD:          0	MERGED:          0	TO_CACHE:    8113661
L2C WQ	ACCESS:    1016481	FORWARD:         81	MERGED:          0	TO_CACHE:    1016481
L2C PQ	ACCESS:      16355	FORWARD:          0	MERGED:          0	TO_CACHE:      16355

L2C Instructions Evicting Data 714106
L2C Translations Evicting Data 78520
L2C Data Evicting Data 433520
L2C Instructions Evicting Instructions 1203379
L2C Translations Evicting Instructions 121242
L2C Data Evicting Instructions 682597
L2C Instructions Evicting Translations 122126
L2C Translations Evicting Translations 13721
L2C Data Evicting Translations 74694
L2C Dense regions hint from L2: 0
PSCL5 TOTAL     ACCESS:     426982  HIT:     426982  MISS:          0  HIT %:        100  MISS %:          0   MPKI: 0
PSCL5 LOAD TRANSLATION ACCESS:     424459  HIT:     424459  MISS:          0  HIT %:        100  MISS %:          0   MPKI: 0
PSCL5 TRANSLATION FROM L1D PREFETCHER ACCESS:       2523  HIT:       2523  MISS:          0  HIT %:        100  MISS %:          0   MPKI: 0
PSCL5 PREFETCH  REQUESTED:          0  ISSUED:          0  USEFUL:          0  USELESS:          0
PSCL5 USEFUL LOAD PREFETCHES:          0 PREFETCH ISSUED TO LOWER LEVEL:          0  ACCURACY: -nan
PSCL5 TIMELY PREFETCHES:          0 LATE PREFETCHES: 0 DROPPED PREFETCHES: 0
PSCL5 PREFETCHES SAME FILL-ORIGIN LEVEL: 0 DIFFERENT FILL-ORIGIN LEVEL: 0

PSCL4 TOTAL     ACCESS:     412693  HIT:     411078  MISS:       1615  HIT %:    99.6087  MISS %:   0.391332   MPKI: 0.008075
PSCL4 LOAD TRANSLATION ACCESS:     410416  HIT:     408801  MISS:       1615  HIT %:    99.6065  MISS %:   0.393503   MPKI: 0.008075
PSCL4 TRANSLATION FROM L1D PREFETCHER ACCESS:       2277  HIT:       2277  MISS:          0  HIT %:        100  MISS %:          0   MPKI: 0
PSCL4 PREFETCH  REQUESTED:          0  ISSUED:          0  USEFUL:          0  USELESS:          0
PSCL4 USEFUL LOAD PREFETCHES:          0 PREFETCH ISSUED TO LOWER LEVEL:          0  ACCURACY: -nan
PSCL4 TIMELY PREFETCHES:          0 LATE PREFETCHES: 0 DROPPED PREFETCHES: 0
PSCL4 PREFETCHES SAME FILL-ORIGIN LEVEL: 0 DIFFERENT FILL-ORIGIN LEVEL: 0

PSCL3 TOTAL     ACCESS:     423143  HIT:     421493  MISS:       1650  HIT %:    99.6101  MISS %:   0.389939   MPKI: 0.00825
PSCL3 LOAD TRANSLATION ACCESS:     420737  HIT:     419087  MISS:       1650  HIT %:    99.6078  MISS %:   0.392169   MPKI: 0.00825
PSCL3 TRANSLATION FROM L1D PREFETCHER ACCESS:       2406  HIT:       2406  MISS:          0  HIT %:        100  MISS %:          0   MPKI: 0
PSCL3 PREFETCH  REQUESTED:          0  ISSUED:          0  USEFUL:          0  USELESS:          0
PSCL3 USEFUL LOAD PREFETCHES:          0 PREFETCH ISSUED TO LOWER LEVEL:          0  ACCURACY: -nan
PSCL3 TIMELY PREFETCHES:          0 LATE PREFETCHES: 0 DROPPED PREFETCHES: 0
PSCL3 PREFETCHES SAME FILL-ORIGIN LEVEL: 0 DIFFERENT FILL-ORIGIN LEVEL: 0

PSCL2 TOTAL     ACCESS:     425505  HIT:     296129  MISS:     129376  HIT %:    69.5947  MISS %:    30.4053   MPKI: 0.64688
PSCL2 LOAD TRANSLATION ACCESS:     424927  HIT:     295551  MISS:     129376  HIT %:    69.5534  MISS %:    30.4466   MPKI: 0.64688
PSCL2 TRANSLATION FROM L1D PREFETCHER ACCESS:        578  HIT:        578  MISS:          0  HIT %:        100  MISS %:          0   MPKI: 0
PSCL2 PREFETCH  REQUESTED:          0  ISSUED:          0  USEFUL:          0  USELESS:          0
PSCL2 USEFUL LOAD PREFETCHES:          0 PREFETCH ISSUED TO LOWER LEVEL:          0  ACCURACY: -nan
PSCL2 TIMELY PREFETCHES:          0 LATE PREFETCHES: 0 DROPPED PREFETCHES: 0
PSCL2 PREFETCHES SAME FILL-ORIGIN LEVEL: 0 DIFFERENT FILL-ORIGIN LEVEL: 0

LLC TOTAL     ACCESS:    3907886  HIT:    3594205  MISS:     313681  HIT %:    91.9731  MISS %:    8.02687   MPKI: 1.5684
LLC LOAD      ACCESS:    3054672  HIT:    2811086  MISS:     243586  HIT %:    92.0258  MISS %:    7.97421   MPKI: 1.21793
LLC RFO       ACCESS:     172301  HIT:     117892  MISS:      54409  HIT %:    68.4221  MISS %:    31.5779   MPKI: 0.272045
LLC PREFETCH  ACCESS:       3449  HIT:       3380  MISS:         69  HIT %:    97.9994  MISS %:    2.00058   MPKI: 0.000345
AGUS PREFETCH L1 MISS: 0
LLC WRITEBACK ACCESS:     463981  HIT:     461737  MISS:       2244  HIT %:    99.5164  MISS %:    0.48364   MPKI: 0.01122
LLC LOAD TRANSLATION ACCESS:     212233  HIT:     198908  MISS:      13325  HIT %:    93.7215  MISS %:    6.27848   MPKI: 0.066625
LLC TRANSLATION FROM L1D PREFETCHER ACCESS:       1250  HIT:       1202  MISS:         48  HIT %:      96.16  MISS %:       3.84   MPKI: 0.00024
LLC PREFETCH  REQUESTED:          0  ISSUED:          0  USEFUL:         26  USELESS:         78
LLC USEFUL LOAD PREFETCHES:         26 PREFETCH ISSUED TO LOWER LEVEL:         69  ACCURACY: 37.6812
LLC TIMELY PREFETCHES:         26 LATE PREFETCHES: 0 DROPPED PREFETCHES: 0
LLC PREFETCHES SAME FILL-ORIGIN LEVEL: 0 DIFFERENT FILL-ORIGIN LEVEL: 0
LLC AVERAGE MISS LATENCY: 157.012 cycles
LLC RQ	ACCESS:    3440455	FORWARD:          0	MERGED:          0	TO_CACHE:    3440455
LLC WQ	ACCESS:     463981	FORWARD:          0	MERGED:          0	TO_CACHE:     463981
LLC PQ	ACCESS:       3449	FORWARD:          0	MERGED:          0	TO_CACHE:       3449

LLC Dense regions hint to LLC: 0

RAW hits: 2834224
Loads Generated: 44883947
Loads sent to L1D: 42049723
Stores Generated: 20434162
Stores sent to L1D: 20434181
Major fault: 0 Minor fault: 6471
Allocated PAGES: 6471
Completed 
Accuracy : 87.056
Number of unique groups: 3659251

DRAM Statistics
 CHANNEL 0
 RQ ROW_BUFFER_HIT:      62320  ROW_BUFFER_MISS:     249116
 DBUS_CONGESTED:        141
 WQ ROW_BUFFER_HIT:      32198  ROW_BUFFER_MISS:     185502  FULL:          0

 AVG_CONGESTED_CYCLE: 4
 All warmup complete: 2
Channel 0 Bank busy for read cycles: 0
Channel 0 Bank busy for write cycles: 0
Channel 0
Rank 0
0banks busy for read cycles: 398213491
0banks busy for write cycles: 120984
1banks busy for read cycles: 28402627
1banks busy for write cycles: 17129492
2banks busy for read cycles: 3717000
2banks busy for write cycles: 4086937
3banks busy for read cycles: 529292
3banks busy for write cycles: 1452268
4banks busy for read cycles: 215104
4banks busy for write cycles: 737317
5banks busy for read cycles: 83459
5banks busy for write cycles: 409903
6banks busy for read cycles: 72784
6banks busy for write cycles: 293238
7banks busy for read cycles: 52496
7banks busy for write cycles: 233001
8banks busy for read cycles: 124473
8banks busy for write cycles: 341359

CPU 0 Branch Prediction Accuracy: 99.8311% MPKI: 0.303505 Average ROB Occupancy at Mispredict: 50.0595
Branch types
NOT_BRANCH: 164070804 82.0354%
BRANCH_DIRECT_JUMP: 1867626 0.933813%
BRANCH_INDIRECT: 9379894 4.68995%
BRANCH_CONDITIONAL: 18176770 9.08838%
BRANCH_DIRECT_CALL: 2585717 1.29286%
BRANCH_INDIRECT_CALL: 665918 0.332959%
BRANCH_RETURN: 3252908 1.62645%
BRANCH_OTHER: 0 0%

DRAM PAGES: 1048576
Allocated PAGES: 6471
