
*** ChampSim Multicore Out-of-Order Simulator ***

Warmup Instructions: 50000000
Simulation Instructions: 200000000
Number of CPUs: 1
LLC sets: 2048
LLC ways: 16
Off-chip DRAM Size: 4096 MB Channels: 1 Width: 64-bit Data Rate: 6400 MT/s
CPU 0 runs traces/spec2k17/srv_2.champsimtrace.xz
.xz
BTB has LRU replacement policy
ITLB has LRU replacement policy
DTLB has LRU replacement policy
STLB has LRU replacement policy
L1I has LRU replacement policy
L1D has LRU replacement policy
Initialize SRRIP state for L2C
Initialize DRRIP state for LLC
Heartbeat CPU 0 instructions: 10000003 cycles: 2771014 heartbeat IPC: 3.60879 cumulative IPC: 3.60879 (Simulation time: 0 hr 0 min 38 sec) 
Heartbeat CPU 0 instructions: 20000000 cycles: 5534115 heartbeat IPC: 3.61912 cumulative IPC: 3.61395 (Simulation time: 0 hr 1 min 18 sec) 
Heartbeat CPU 0 instructions: 30000001 cycles: 8299763 heartbeat IPC: 3.61579 cumulative IPC: 3.61456 (Simulation time: 0 hr 1 min 58 sec) 
*** Reached end of trace for Core: 0 Repeating trace: traces/spec2k17/srv_2.champsimtrace.xz
Heartbeat CPU 0 instructions: 40000000 cycles: 11064290 heartbeat IPC: 3.61725 cumulative IPC: 3.61523 (Simulation time: 0 hr 2 min 35 sec) 
Heartbeat CPU 0 instructions: 50000002 cycles: 13825905 heartbeat IPC: 3.62107 cumulative IPC: 3.6164 (Simulation time: 0 hr 3 min 16 sec) 

Warmup complete CPU 0 instructions: 50000002 cycles: 13825905 (Simulation time: 0 hr 3 min 16 sec) 

Heartbeat CPU 0 instructions: 60000000 cycles: 36375587 heartbeat IPC: 0.443465 cumulative IPC: 0.443465 (Simulation time: 0 hr 4 min 13 sec) 
*** Reached end of trace for Core: 0 Repeating trace: traces/spec2k17/srv_2.champsimtrace.xz
Heartbeat CPU 0 instructions: 70000000 cycles: 58635196 heartbeat IPC: 0.449244 cumulative IPC: 0.446336 (Simulation time: 0 hr 5 min 3 sec) 
Heartbeat CPU 0 instructions: 80000001 cycles: 80266061 heartbeat IPC: 0.462302 cumulative IPC: 0.451534 (Simulation time: 0 hr 5 min 55 sec) 
Heartbeat CPU 0 instructions: 90000000 cycles: 102743446 heartbeat IPC: 0.444892 cumulative IPC: 0.449855 (Simulation time: 0 hr 6 min 50 sec) 
*** Reached end of trace for Core: 0 Repeating trace: traces/spec2k17/srv_2.champsimtrace.xz
Heartbeat CPU 0 instructions: 100000000 cycles: 124885471 heartbeat IPC: 0.45163 cumulative IPC: 0.450209 (Simulation time: 0 hr 7 min 44 sec) 
Heartbeat CPU 0 instructions: 110000000 cycles: 146588600 heartbeat IPC: 0.460763 cumulative IPC: 0.451934 (Simulation time: 0 hr 8 min 39 sec) 
Heartbeat CPU 0 instructions: 120000001 cycles: 168542243 heartbeat IPC: 0.455505 cumulative IPC: 0.452441 (Simulation time: 0 hr 9 min 35 sec) 
*** Reached end of trace for Core: 0 Repeating trace: traces/spec2k17/srv_2.champsimtrace.xz
Heartbeat CPU 0 instructions: 130000001 cycles: 191301720 heartbeat IPC: 0.439377 cumulative IPC: 0.450766 (Simulation time: 0 hr 10 min 27 sec) 
Heartbeat CPU 0 instructions: 140000000 cycles: 212939123 heartbeat IPC: 0.462163 cumulative IPC: 0.452004 (Simulation time: 0 hr 11 min 29 sec) 
Heartbeat CPU 0 instructions: 150000001 cycles: 235017615 heartbeat IPC: 0.45293 cumulative IPC: 0.452096 (Simulation time: 0 hr 12 min 24 sec) 
*** Reached end of trace for Core: 0 Repeating trace: traces/spec2k17/srv_2.champsimtrace.xz
Heartbeat CPU 0 instructions: 160000002 cycles: 257404561 heartbeat IPC: 0.446689 cumulative IPC: 0.4516 (Simulation time: 0 hr 13 min 19 sec) 
Heartbeat CPU 0 instructions: 170000001 cycles: 279292436 heartbeat IPC: 0.456874 cumulative IPC: 0.452034 (Simulation time: 0 hr 14 min 14 sec) 
Heartbeat CPU 0 instructions: 180000000 cycles: 301310271 heartbeat IPC: 0.454177 cumulative IPC: 0.452199 (Simulation time: 0 hr 15 min 13 sec) 
*** Reached end of trace for Core: 0 Repeating trace: traces/spec2k17/srv_2.champsimtrace.xz
Heartbeat CPU 0 instructions: 190000000 cycles: 323782918 heartbeat IPC: 0.444985 cumulative IPC: 0.451676 (Simulation time: 0 hr 16 min 14 sec) 
Heartbeat CPU 0 instructions: 200000000 cycles: 345600724 heartbeat IPC: 0.458341 cumulative IPC: 0.452114 (Simulation time: 0 hr 17 min 10 sec) 
Heartbeat CPU 0 instructions: 210000000 cycles: 367160743 heartbeat IPC: 0.463821 cumulative IPC: 0.452828 (Simulation time: 0 hr 18 min 6 sec) 
*** Reached end of trace for Core: 0 Repeating trace: traces/spec2k17/srv_2.champsimtrace.xz
Heartbeat CPU 0 instructions: 220000000 cycles: 389895823 heartbeat IPC: 0.439849 cumulative IPC: 0.452044 (Simulation time: 0 hr 19 min 2 sec) 
Heartbeat CPU 0 instructions: 230000002 cycles: 411854763 heartbeat IPC: 0.455395 cumulative IPC: 0.452229 (Simulation time: 0 hr 20 min 0 sec) 
Heartbeat CPU 0 instructions: 240000002 cycles: 433461062 heartbeat IPC: 0.462828 cumulative IPC: 0.452774 (Simulation time: 0 hr 21 min 0 sec) 
*** Reached end of trace for Core: 0 Repeating trace: traces/spec2k17/srv_2.champsimtrace.xz
Heartbeat CPU 0 instructions: 250000002 cycles: 456111473 heartbeat IPC: 0.441493 cumulative IPC: 0.452197 (Simulation time: 0 hr 22 min 6 sec) 
Finished CPU 0 instructions: 200000000 cycles: 442285568 cumulative IPC: 0.452197 (Simulation time: 0 hr 22 min 6 sec) 

ChampSim completed all CPUs

Region of Interest Statistics

CPU 0 cumulative IPC: 0.452197 instructions: 200000000 cycles: 442285568
ITLB TOTAL     ACCESS:   31283677  HIT:   30504932  MISS:     778745  HIT %:    97.5107  MISS %:     2.4893   MPKI: 3.89372
ITLB LOAD TRANSLATION ACCESS:   31283677  HIT:   30504932  MISS:     778745  HIT %:    97.5107  MISS %:     2.4893   MPKI: 3.89372
ITLB PREFETCH  REQUESTED:          0  ISSUED:          0  USEFUL:          0  USELESS:          0
ITLB USEFUL LOAD PREFETCHES:          0 PREFETCH ISSUED TO LOWER LEVEL:          0  ACCURACY: -nan
ITLB TIMELY PREFETCHES:          0 LATE PREFETCHES: 0 DROPPED PREFETCHES: 0
ITLB PREFETCHES SAME FILL-ORIGIN LEVEL: 0 DIFFERENT FILL-ORIGIN LEVEL: 0
ITLB AVERAGE MISS LATENCY: 13.6247 cycles
ITLB RQ	ACCESS:   38368413	FORWARD:          0	MERGED:    6890235	TO_CACHE:   31478178

DTLB TOTAL     ACCESS:   37018722  HIT:   34424557  MISS:    2594165  HIT %:    92.9923  MISS %:    7.00771   MPKI: 12.9708
DTLB LOAD TRANSLATION ACCESS:   37018722  HIT:   34424557  MISS:    2594165  HIT %:    92.9923  MISS %:    7.00771   MPKI: 12.9708
DTLB PREFETCH  REQUESTED:          0  ISSUED:          0  USEFUL:          0  USELESS:          0
DTLB USEFUL LOAD PREFETCHES:          0 PREFETCH ISSUED TO LOWER LEVEL:          0  ACCURACY: -nan
DTLB TIMELY PREFETCHES:          0 LATE PREFETCHES: 0 DROPPED PREFETCHES: 0
DTLB PREFETCHES SAME FILL-ORIGIN LEVEL: 0 DIFFERENT FILL-ORIGIN LEVEL: 0
DTLB AVERAGE MISS LATENCY: 13.4584 cycles
DTLB RQ	ACCESS:   47508906	FORWARD:          0	MERGED:   10348569	TO_CACHE:   37160337

STLB TOTAL     ACCESS:    5650565  HIT:    5316412  MISS:     334153  HIT %:    94.0864  MISS %:    5.91362   MPKI: 1.67077
STLB LOAD TRANSLATION ACCESS:    3372910  HIT:    3039215  MISS:     333695  HIT %:    90.1066  MISS %:    9.89339   MPKI: 1.66847
STLB TRANSLATION FROM L1D PREFETCHER ACCESS:    2277655  HIT:    2277197  MISS:        458  HIT %:    99.9799  MISS %:  0.0201084   MPKI: 0.00229
STLB PREFETCH  REQUESTED:          0  ISSUED:          0  USEFUL:        428  USELESS:         29
STLB USEFUL LOAD PREFETCHES:        428 PREFETCH ISSUED TO LOWER LEVEL:          0  ACCURACY: inf
STLB TIMELY PREFETCHES:        428 LATE PREFETCHES: 241 DROPPED PREFETCHES: 438
STLB PREFETCHES SAME FILL-ORIGIN LEVEL: 0 DIFFERENT FILL-ORIGIN LEVEL: 0
STLB AVERAGE MISS LATENCY: 46.5304 cycles
STLB RQ	ACCESS:    6318588	FORWARD:          0	MERGED:     667291	TO_CACHE:    5651297

STLB Hit, L1D data hit: 0
STLB Hit, L2C data hit: 0
STLB Hit, LLC data hit: 0
STLB Hit, LLC data miss: 0
STLB STLB hints to L2: 0
L1D TOTAL     ACCESS:   49893372  HIT:   47440903  MISS:    2452469  HIT %:    95.0846  MISS %:    4.91542   MPKI: 12.2623
L1D LOAD      ACCESS:   27450091  HIT:   25344536  MISS:    2105555  HIT %:    92.3295  MISS %:    7.67048   MPKI: 10.5278
L1D RFO       ACCESS:   19515865  HIT:   19178743  MISS:     337122  HIT %:    98.2726  MISS %:    1.72743   MPKI: 1.68561
L1D PREFETCH  ACCESS:    2927416  HIT:    2917624  MISS:       9792  HIT %:    99.6655  MISS %:   0.334493   MPKI: 0.04896
AGUS PREFETCH L1 MISS: 0
L1D PREFETCH  REQUESTED:    5945792  ISSUED:    5945787  USEFUL:       8763  USELESS:       1029
L1D USEFUL LOAD PREFETCHES:       8763 PREFETCH ISSUED TO LOWER LEVEL:      18132  ACCURACY: 48.3289
L1D TIMELY PREFETCHES:       8763 LATE PREFETCHES: 8279 DROPPED PREFETCHES: 471
L1D PREFETCHES SAME FILL-ORIGIN LEVEL: 18132 DIFFERENT FILL-ORIGIN LEVEL: 0
L1D AVERAGE MISS LATENCY: 948626 cycles
L1D RQ	ACCESS:   42106397	FORWARD:          0	MERGED:   14268382	TO_CACHE:   27587450
L1D WQ	ACCESS:   20224316	FORWARD:     257530	MERGED:     302860	TO_CACHE:   19921456
L1D PQ	ACCESS:    3000109	FORWARD:          0	MERGED:      47466	TO_CACHE:    2945678

L1D UNIQUE REGIONS ACCESSED: 0
L1D REGIONS CONFLICTS: 0
L1D Cross Page Prefetch Requests: 2619267
L1D Same Page Prefetch Requests: 518194
L1D ROI Sum of L1D PQ occupancy: 40926987
L1D PREFETCHES PUSHED FROM L2C: 0
L1I TOTAL     ACCESS:   36558267  HIT:   31409977  MISS:    5148290  HIT %:    85.9176  MISS %:    14.0824   MPKI: 25.7415
L1I LOAD      ACCESS:   36558267  HIT:   31409977  MISS:    5148290  HIT %:    85.9176  MISS %:    14.0824   MPKI: 25.7415
L1I PREFETCH  REQUESTED:          0  ISSUED:          0  USEFUL:          0  USELESS:          0
L1I USEFUL LOAD PREFETCHES:          0 PREFETCH ISSUED TO LOWER LEVEL:          0  ACCURACY: -nan
L1I TIMELY PREFETCHES:          0 LATE PREFETCHES: 0 DROPPED PREFETCHES: 0
L1I PREFETCHES SAME FILL-ORIGIN LEVEL: 0 DIFFERENT FILL-ORIGIN LEVEL: 0
L1I AVERAGE MISS LATENCY: 25.2515 cycles
L1I RQ	ACCESS:   57175200	FORWARD:          0	MERGED:   18806787	TO_CACHE:   38368413

BTB TOTAL     ACCESS:   22017287  HIT:   17637200  MISS:    4380087  HIT %:    80.1061  MISS %:    19.8939   MPKI: 21.9004
BTB BRANCH_DIRECT_JUMP	ACCESS:    1737856  HIT:    1493758  MISS:     244098
BTB BRANCH_INDIRECT	ACCESS:    9415713  HIT:    7279334  MISS:    2136379
BTB BRANCH_CONDITIONAL	ACCESS:    4567442  HIT:    4164173  MISS:     403269
BTB BRANCH_DIRECT_CALL	ACCESS:    2474421  HIT:    1994045  MISS:     480376
BTB BRANCH_INDIRECT_CALL	ACCESS:     673221  HIT:     632799  MISS:      40422
BTB BRANCH_RETURN	ACCESS:    3148634  HIT:    2073091  MISS:    1075543
BTB BRANCH_OTHER ACCESS:          0  HIT:          0  MISS:          0

L2C TOTAL     ACCESS:    9051514  HIT:    5971892  MISS:    3079622  HIT %:    65.9767  MISS %:    34.0233   MPKI: 15.3981
L2C LOAD      ACCESS:    7245352  HIT:    4542338  MISS:    2703014  HIT %:    62.6931  MISS %:    37.3069   MPKI: 13.5151
L2C DATA LOAD MPKI: 4.53973
L2C INSTRUCTION LOAD MPKI: 8.97534
L2C RFO       ACCESS:     337061  HIT:     194530  MISS:     142531  HIT %:    57.7136  MISS %:    42.2864   MPKI: 0.712655
L2C PREFETCH  ACCESS:      18132  HIT:      15720  MISS:       2412  HIT %:    86.6976  MISS %:    13.3024   MPKI: 0.01206
AGUS PREFETCH L1 MISS: 0
L2C DATA PREFETCH MPKI: 0.01206
L2C INSTRUCTION PREFETCH MPKI: 0
L2C WRITEBACK ACCESS:    1008815  HIT:     956056  MISS:      52759  HIT %:    94.7702  MISS %:     5.2298   MPKI: 0.263795
L2C LOAD TRANSLATION ACCESS:     440210  HIT:     261968  MISS:     178242  HIT %:    59.5098  MISS %:    40.4902   MPKI: 0.89121
L2C TRANSLATION FROM L1D PREFETCHER ACCESS:       1944  HIT:       1280  MISS:        664  HIT %:    65.8436  MISS %:    34.1564   MPKI: 0.00332
L2C PREFETCH  REQUESTED:          0  ISSUED:          0  USEFUL:       1298  USELESS:       1774
L2C USEFUL LOAD PREFETCHES:       1298 PREFETCH ISSUED TO LOWER LEVEL:       2412  ACCURACY: 53.8143
L2C TIMELY PREFETCHES:       1298 LATE PREFETCHES: 0 DROPPED PREFETCHES: 0
L2C PREFETCHES SAME FILL-ORIGIN LEVEL: 0 DIFFERENT FILL-ORIGIN LEVEL: 0
L2C AVERAGE MISS LATENCY: 45.2967 cycles
L2C RQ	ACCESS:    8024781	FORWARD:          0	MERGED:          0	TO_CACHE:    8024567
L2C WQ	ACCESS:    1008815	FORWARD:        214	MERGED:          0	TO_CACHE:    1008815
L2C PQ	ACCESS:      18132	FORWARD:          0	MERGED:          0	TO_CACHE:      18132

L2C Instructions Evicting Data 623809
L2C Translations Evicting Data 68795
L2C Data Evicting Data 394475
L2C Instructions Evicting Instructions 1072329
L2C Translations Evicting Instructions 98458
L2C Data Evicting Instructions 592629
L2C Instructions Evicting Translations 98930
L2C Translations Evicting Translations 11653
L2C Data Evicting Translations 65785
L2C Dense regions hint from L2: 0
PSCL5 TOTAL     ACCESS:     334589  HIT:     334589  MISS:          0  HIT %:        100  MISS %:          0   MPKI: 0
PSCL5 LOAD TRANSLATION ACCESS:     333454  HIT:     333454  MISS:          0  HIT %:        100  MISS %:          0   MPKI: 0
PSCL5 TRANSLATION FROM L1D PREFETCHER ACCESS:       1135  HIT:       1135  MISS:          0  HIT %:        100  MISS %:          0   MPKI: 0
PSCL5 PREFETCH  REQUESTED:          0  ISSUED:          0  USEFUL:          0  USELESS:          0
PSCL5 USEFUL LOAD PREFETCHES:          0 PREFETCH ISSUED TO LOWER LEVEL:          0  ACCURACY: -nan
PSCL5 TIMELY PREFETCHES:          0 LATE PREFETCHES: 0 DROPPED PREFETCHES: 0
PSCL5 PREFETCHES SAME FILL-ORIGIN LEVEL: 0 DIFFERENT FILL-ORIGIN LEVEL: 0

PSCL4 TOTAL     ACCESS:     315840  HIT:     315439  MISS:        401  HIT %:     99.873  MISS %:   0.126963   MPKI: 0.002005
PSCL4 LOAD TRANSLATION ACCESS:     314728  HIT:     314327  MISS:        401  HIT %:    99.8726  MISS %:   0.127412   MPKI: 0.002005
PSCL4 TRANSLATION FROM L1D PREFETCHER ACCESS:       1112  HIT:       1112  MISS:          0  HIT %:        100  MISS %:          0   MPKI: 0
PSCL4 PREFETCH  REQUESTED:          0  ISSUED:          0  USEFUL:          0  USELESS:          0
PSCL4 USEFUL LOAD PREFETCHES:          0 PREFETCH ISSUED TO LOWER LEVEL:          0  ACCURACY: -nan
PSCL4 TIMELY PREFETCHES:          0 LATE PREFETCHES: 0 DROPPED PREFETCHES: 0
PSCL4 PREFETCHES SAME FILL-ORIGIN LEVEL: 0 DIFFERENT FILL-ORIGIN LEVEL: 0

PSCL3 TOTAL     ACCESS:     333693  HIT:     332889  MISS:        804  HIT %:    99.7591  MISS %:    0.24094   MPKI: 0.00402
PSCL3 LOAD TRANSLATION ACCESS:     332567  HIT:     331763  MISS:        804  HIT %:    99.7582  MISS %:   0.241756   MPKI: 0.00402
PSCL3 TRANSLATION FROM L1D PREFETCHER ACCESS:       1126  HIT:       1126  MISS:          0  HIT %:        100  MISS %:          0   MPKI: 0
PSCL3 PREFETCH  REQUESTED:          0  ISSUED:          0  USEFUL:          0  USELESS:          0
PSCL3 USEFUL LOAD PREFETCHES:          0 PREFETCH ISSUED TO LOWER LEVEL:          0  ACCURACY: -nan
PSCL3 TIMELY PREFETCHES:          0 LATE PREFETCHES: 0 DROPPED PREFETCHES: 0
PSCL3 PREFETCHES SAME FILL-ORIGIN LEVEL: 0 DIFFERENT FILL-ORIGIN LEVEL: 0

PSCL2 TOTAL     ACCESS:     334313  HIT:     228190  MISS:     106123  HIT %:    68.2564  MISS %:    31.7436   MPKI: 0.530615
PSCL2 LOAD TRANSLATION ACCESS:     334024  HIT:     227901  MISS:     106123  HIT %:    68.2289  MISS %:    31.7711   MPKI: 0.530615
PSCL2 TRANSLATION FROM L1D PREFETCHER ACCESS:        289  HIT:        289  MISS:          0  HIT %:        100  MISS %:          0   MPKI: 0
PSCL2 PREFETCH  REQUESTED:          0  ISSUED:          0  USEFUL:          0  USELESS:          0
PSCL2 USEFUL LOAD PREFETCHES:          0 PREFETCH ISSUED TO LOWER LEVEL:          0  ACCURACY: -nan
PSCL2 TIMELY PREFETCHES:          0 LATE PREFETCHES: 0 DROPPED PREFETCHES: 0
PSCL2 PREFETCHES SAME FILL-ORIGIN LEVEL: 0 DIFFERENT FILL-ORIGIN LEVEL: 0

LLC TOTAL     ACCESS:    3439655  HIT:    3113369  MISS:     326286  HIT %:     90.514  MISS %:    9.48601   MPKI: 1.63143
LLC LOAD      ACCESS:    2703008  HIT:    2440190  MISS:     262818  HIT %:    90.2768  MISS %:    9.72317   MPKI: 1.31409
LLC RFO       ACCESS:     142524  HIT:      93727  MISS:      48797  HIT %:    65.7623  MISS %:    34.2377   MPKI: 0.243985
LLC PREFETCH  ACCESS:       2412  HIT:       2374  MISS:         38  HIT %:    98.4245  MISS %:    1.57546   MPKI: 0.00019
AGUS PREFETCH L1 MISS: 0
LLC WRITEBACK ACCESS:     412805  HIT:     410682  MISS:       2123  HIT %:    99.4857  MISS %:   0.514286   MPKI: 0.010615
LLC LOAD TRANSLATION ACCESS:     178242  HIT:     165756  MISS:      12486  HIT %:    92.9949  MISS %:    7.00508   MPKI: 0.06243
LLC TRANSLATION FROM L1D PREFETCHER ACCESS:        664  HIT:        640  MISS:         24  HIT %:    96.3855  MISS %:    3.61446   MPKI: 0.00012
LLC PREFETCH  REQUESTED:          0  ISSUED:          0  USEFUL:         11  USELESS:         43
LLC USEFUL LOAD PREFETCHES:         11 PREFETCH ISSUED TO LOWER LEVEL:         38  ACCURACY: 28.9474
LLC TIMELY PREFETCHES:         11 LATE PREFETCHES: 0 DROPPED PREFETCHES: 0
LLC PREFETCHES SAME FILL-ORIGIN LEVEL: 0 DIFFERENT FILL-ORIGIN LEVEL: 0
LLC AVERAGE MISS LATENCY: 149.225 cycles
LLC RQ	ACCESS:    3024451	FORWARD:          0	MERGED:          0	TO_CACHE:    3024438
LLC WQ	ACCESS:     412805	FORWARD:         13	MERGED:          0	TO_CACHE:     412805
LLC PQ	ACCESS:       2412	FORWARD:          0	MERGED:          0	TO_CACHE:       2412

LLC Dense regions hint to LLC: 0

RAW hits: 2766795
Loads Generated: 44873193
Loads sent to L1D: 42106397
Stores Generated: 20224315
Stores sent to L1D: 20224316
Major fault: 0 Minor fault: 6527
Allocated PAGES: 6527
Completed 
Accuracy : 87.8163
Number of unique groups: 2541452

DRAM Statistics
 CHANNEL 0
 RQ ROW_BUFFER_HIT:      70132  ROW_BUFFER_MISS:     254031
 DBUS_CONGESTED:        224
 WQ ROW_BUFFER_HIT:      38425  ROW_BUFFER_MISS:     180731  FULL:          0

 AVG_CONGESTED_CYCLE: 4
 All warmup complete: 2
Channel 0 Bank busy for read cycles: 0
Channel 0 Bank busy for write cycles: 0
Channel 0
Rank 0
0banks busy for read cycles: 382360354
0banks busy for write cycles: 117161
1banks busy for read cycles: 29646900
1banks busy for write cycles: 16884120
2banks busy for read cycles: 3941252
2banks busy for write cycles: 4447376
3banks busy for read cycles: 497622
3banks busy for write cycles: 1692361
4banks busy for read cycles: 220186
4banks busy for write cycles: 852339
5banks busy for read cycles: 98325
5banks busy for write cycles: 504754
6banks busy for read cycles: 73255
6banks busy for write cycles: 321566
7banks busy for read cycles: 46465
7banks busy for write cycles: 267093
8banks busy for read cycles: 56622
8banks busy for write cycles: 257818

CPU 0 Branch Prediction Accuracy: 99.8118% MPKI: 0.33607 Average ROB Occupancy at Mispredict: 42.9364
Branch types
NOT_BRANCH: 164293651 82.1468%
BRANCH_DIRECT_JUMP: 1737856 0.868928%
BRANCH_INDIRECT: 9415713 4.70786%
BRANCH_CONDITIONAL: 18256214 9.12811%
BRANCH_DIRECT_CALL: 2474421 1.23721%
BRANCH_INDIRECT_CALL: 673221 0.33661%
BRANCH_RETURN: 3148634 1.57432%
BRANCH_OTHER: 0 0%

DRAM PAGES: 1048576
Allocated PAGES: 6527
