
*** ChampSim Multicore Out-of-Order Simulator ***

Warmup Instructions: 50000000
Simulation Instructions: 200000000
Number of CPUs: 1
LLC sets: 2048
LLC ways: 16
Off-chip DRAM Size: 4096 MB Channels: 1 Width: 64-bit Data Rate: 6400 MT/s
CPU 0 runs traces/spec2k17/srv_61.champsimtrace.xz
.xz
BTB has LRU replacement policy
ITLB has LRU replacement policy
DTLB has LRU replacement policy
STLB has LRU replacement policy
L1I has LRU replacement policy
L1D has LRU replacement policy
Initialize SRRIP state for L2C
Initialize DRRIP state for LLC
Heartbeat CPU 0 instructions: 10000002 cycles: 2779101 heartbeat IPC: 3.59829 cumulative IPC: 3.59829 (Simulation time: 0 hr 0 min 35 sec) 
Heartbeat CPU 0 instructions: 20000002 cycles: 5553634 heartbeat IPC: 3.60421 cumulative IPC: 3.60125 (Simulation time: 0 hr 1 min 12 sec) 
Heartbeat CPU 0 instructions: 30000000 cycles: 8329124 heartbeat IPC: 3.60297 cumulative IPC: 3.60182 (Simulation time: 0 hr 2 min 4 sec) 
*** Reached end of trace for Core: 0 Repeating trace: traces/spec2k17/srv_61.champsimtrace.xz
Heartbeat CPU 0 instructions: 40000000 cycles: 11104038 heartbeat IPC: 3.60372 cumulative IPC: 3.60229 (Simulation time: 0 hr 2 min 39 sec) 
Heartbeat CPU 0 instructions: 50000001 cycles: 13878182 heartbeat IPC: 3.60472 cumulative IPC: 3.60278 (Simulation time: 0 hr 3 min 12 sec) 

Warmup complete CPU 0 instructions: 50000001 cycles: 13878182 (Simulation time: 0 hr 3 min 12 sec) 

Heartbeat CPU 0 instructions: 60000002 cycles: 37970637 heartbeat IPC: 0.415068 cumulative IPC: 0.415068 (Simulation time: 0 hr 4 min 21 sec) 
*** Reached end of trace for Core: 0 Repeating trace: traces/spec2k17/srv_61.champsimtrace.xz
Heartbeat CPU 0 instructions: 70000001 cycles: 61696206 heartbeat IPC: 0.421486 cumulative IPC: 0.418252 (Simulation time: 0 hr 5 min 14 sec) 
Heartbeat CPU 0 instructions: 80000003 cycles: 85266557 heartbeat IPC: 0.424262 cumulative IPC: 0.420237 (Simulation time: 0 hr 6 min 25 sec) 
Heartbeat CPU 0 instructions: 90000003 cycles: 109375094 heartbeat IPC: 0.414791 cumulative IPC: 0.418862 (Simulation time: 0 hr 7 min 16 sec) 
*** Reached end of trace for Core: 0 Repeating trace: traces/spec2k17/srv_61.champsimtrace.xz
Heartbeat CPU 0 instructions: 100000001 cycles: 133011181 heartbeat IPC: 0.423082 cumulative IPC: 0.419699 (Simulation time: 0 hr 8 min 8 sec) 
Heartbeat CPU 0 instructions: 110000000 cycles: 156679390 heartbeat IPC: 0.422508 cumulative IPC: 0.420164 (Simulation time: 0 hr 9 min 50 sec) 
Heartbeat CPU 0 instructions: 120000001 cycles: 180548999 heartbeat IPC: 0.418943 cumulative IPC: 0.41999 (Simulation time: 0 hr 10 min 55 sec) 
*** Reached end of trace for Core: 0 Repeating trace: traces/spec2k17/srv_61.champsimtrace.xz
Heartbeat CPU 0 instructions: 130000000 cycles: 204576393 heartbeat IPC: 0.416192 cumulative IPC: 0.419511 (Simulation time: 0 hr 11 min 45 sec) 
Heartbeat CPU 0 instructions: 140000003 cycles: 227882502 heartbeat IPC: 0.429072 cumulative IPC: 0.420552 (Simulation time: 0 hr 12 min 29 sec) 
Heartbeat CPU 0 instructions: 150000002 cycles: 251624259 heartbeat IPC: 0.421199 cumulative IPC: 0.420617 (Simulation time: 0 hr 13 min 9 sec) 
*** Reached end of trace for Core: 0 Repeating trace: traces/spec2k17/srv_61.champsimtrace.xz
Heartbeat CPU 0 instructions: 160000000 cycles: 275843331 heartbeat IPC: 0.412898 cumulative IPC: 0.419903 (Simulation time: 0 hr 13 min 51 sec) 
Heartbeat CPU 0 instructions: 170000001 cycles: 299148204 heartbeat IPC: 0.429095 cumulative IPC: 0.420654 (Simulation time: 0 hr 14 min 31 sec) 
Heartbeat CPU 0 instructions: 180000003 cycles: 322821037 heartbeat IPC: 0.422425 cumulative IPC: 0.42079 (Simulation time: 0 hr 15 min 11 sec) 
*** Reached end of trace for Core: 0 Repeating trace: traces/spec2k17/srv_61.champsimtrace.xz
Heartbeat CPU 0 instructions: 190000000 cycles: 346826042 heartbeat IPC: 0.41658 cumulative IPC: 0.420486 (Simulation time: 0 hr 15 min 55 sec) 
Heartbeat CPU 0 instructions: 200000002 cycles: 370352614 heartbeat IPC: 0.425051 cumulative IPC: 0.420788 (Simulation time: 0 hr 16 min 32 sec) 
Heartbeat CPU 0 instructions: 210000000 cycles: 394111662 heartbeat IPC: 0.420892 cumulative IPC: 0.420794 (Simulation time: 0 hr 17 min 12 sec) 
*** Reached end of trace for Core: 0 Repeating trace: traces/spec2k17/srv_61.champsimtrace.xz
Heartbeat CPU 0 instructions: 220000000 cycles: 418073439 heartbeat IPC: 0.417331 cumulative IPC: 0.420589 (Simulation time: 0 hr 17 min 55 sec) 
Heartbeat CPU 0 instructions: 230000001 cycles: 441338696 heartbeat IPC: 0.429826 cumulative IPC: 0.421092 (Simulation time: 0 hr 18 min 51 sec) 
Heartbeat CPU 0 instructions: 240000000 cycles: 465129270 heartbeat IPC: 0.420334 cumulative IPC: 0.421052 (Simulation time: 0 hr 20 min 11 sec) 
*** Reached end of trace for Core: 0 Repeating trace: traces/spec2k17/srv_61.champsimtrace.xz
Heartbeat CPU 0 instructions: 250000003 cycles: 488991136 heartbeat IPC: 0.419079 cumulative IPC: 0.420953 (Simulation time: 0 hr 20 min 57 sec) 
Finished CPU 0 instructions: 200000002 cycles: 475112954 cumulative IPC: 0.420953 (Simulation time: 0 hr 20 min 57 sec) 

ChampSim completed all CPUs

Region of Interest Statistics

CPU 0 cumulative IPC: 0.420953 instructions: 200000002 cycles: 475112954
ITLB TOTAL     ACCESS:   31598394  HIT:   30776362  MISS:     822032  HIT %:    97.3985  MISS %:     2.6015   MPKI: 4.11016
ITLB LOAD TRANSLATION ACCESS:   31598394  HIT:   30776362  MISS:     822032  HIT %:    97.3985  MISS %:     2.6015   MPKI: 4.11016
ITLB PREFETCH  REQUESTED:          0  ISSUED:          0  USEFUL:          0  USELESS:          0
ITLB USEFUL LOAD PREFETCHES:          0 PREFETCH ISSUED TO LOWER LEVEL:          0  ACCURACY: -nan
ITLB TIMELY PREFETCHES:          0 LATE PREFETCHES: 0 DROPPED PREFETCHES: 0
ITLB PREFETCHES SAME FILL-ORIGIN LEVEL: 0 DIFFERENT FILL-ORIGIN LEVEL: 0
ITLB AVERAGE MISS LATENCY: 15.5768 cycles
ITLB RQ	ACCESS:   38398095	FORWARD:          0	MERGED:    6601654	TO_CACHE:   31796441

DTLB TOTAL     ACCESS:   37544879  HIT:   35002030  MISS:    2542849  HIT %:    93.2272  MISS %:    6.77283   MPKI: 12.7142
DTLB LOAD TRANSLATION ACCESS:   37544879  HIT:   35002030  MISS:    2542849  HIT %:    93.2272  MISS %:    6.77283   MPKI: 12.7142
DTLB PREFETCH  REQUESTED:          0  ISSUED:          0  USEFUL:          0  USELESS:          0
DTLB USEFUL LOAD PREFETCHES:          0 PREFETCH ISSUED TO LOWER LEVEL:          0  ACCURACY: -nan
DTLB TIMELY PREFETCHES:          0 LATE PREFETCHES: 0 DROPPED PREFETCHES: 0
DTLB PREFETCHES SAME FILL-ORIGIN LEVEL: 0 DIFFERENT FILL-ORIGIN LEVEL: 0
DTLB AVERAGE MISS LATENCY: 13.7244 cycles
DTLB RQ	ACCESS:   48016679	FORWARD:          0	MERGED:   10325331	TO_CACHE:   37691348

STLB TOTAL     ACCESS:    5346703  HIT:    4888257  MISS:     458446  HIT %:    91.4256  MISS %:    8.57437   MPKI: 2.29223
STLB LOAD TRANSLATION ACCESS:    3364881  HIT:    2907359  MISS:     457522  HIT %:     86.403  MISS %:     13.597   MPKI: 2.28761
STLB TRANSLATION FROM L1D PREFETCHER ACCESS:    1981822  HIT:    1980898  MISS:        924  HIT %:    99.9534  MISS %:  0.0466238   MPKI: 0.00462
STLB PREFETCH  REQUESTED:          0  ISSUED:          0  USEFUL:        861  USELESS:         63
STLB USEFUL LOAD PREFETCHES:        861 PREFETCH ISSUED TO LOWER LEVEL:          0  ACCURACY: inf
STLB TIMELY PREFETCHES:        861 LATE PREFETCHES: 251 DROPPED PREFETCHES: 639
STLB PREFETCHES SAME FILL-ORIGIN LEVEL: 0 DIFFERENT FILL-ORIGIN LEVEL: 0
STLB AVERAGE MISS LATENCY: 38.6615 cycles
STLB RQ	ACCESS:    5929020	FORWARD:          0	MERGED:     581368	TO_CACHE:    5347652

STLB Hit, L1D data hit: 0
STLB Hit, L2C data hit: 0
STLB Hit, LLC data hit: 0
STLB Hit, LLC data miss: 0
STLB STLB hints to L2: 0
L1D TOTAL     ACCESS:   49998292  HIT:   47477825  MISS:    2520467  HIT %:    94.9589  MISS %:    5.04111   MPKI: 12.6023
L1D LOAD      ACCESS:   27891138  HIT:   25735206  MISS:    2155932  HIT %:    92.2702  MISS %:    7.72981   MPKI: 10.7797
L1D RFO       ACCESS:   19560595  HIT:   19206463  MISS:     354132  HIT %:    98.1896  MISS %:    1.81044   MPKI: 1.77066
L1D PREFETCH  ACCESS:    2546559  HIT:    2536156  MISS:      10403  HIT %:    99.5915  MISS %:   0.408512   MPKI: 0.052015
AGUS PREFETCH L1 MISS: 0
L1D PREFETCH  REQUESTED:    5186523  ISSUED:    5186511  USEFUL:       8445  USELESS:       1958
L1D USEFUL LOAD PREFETCHES:       8445 PREFETCH ISSUED TO LOWER LEVEL:      18189  ACCURACY: 46.4292
L1D TIMELY PREFETCHES:       8445 LATE PREFETCHES: 7677 DROPPED PREFETCHES: 671
L1D PREFETCHES SAME FILL-ORIGIN LEVEL: 18189 DIFFERENT FILL-ORIGIN LEVEL: 0
L1D AVERAGE MISS LATENCY: 917370 cycles
L1D RQ	ACCESS:   42072659	FORWARD:          0	MERGED:   13834638	TO_CACHE:   28038442
L1D WQ	ACCESS:   20321693	FORWARD:     204881	MERGED:     343456	TO_CACHE:   19978237
L1D PQ	ACCESS:    2622372	FORWARD:          0	MERGED:      52931	TO_CACHE:    2564139

L1D UNIQUE REGIONS ACCESSED: 0
L1D REGIONS CONFLICTS: 0
L1D Cross Page Prefetch Requests: 2242201
L1D Same Page Prefetch Requests: 489683
L1D ROI Sum of L1D PQ occupancy: 35664989
L1D PREFETCHES PUSHED FROM L2C: 0
L1I TOTAL     ACCESS:   36721956  HIT:   31510971  MISS:    5210985  HIT %:    85.8096  MISS %:    14.1904   MPKI: 26.0549
L1I LOAD      ACCESS:   36721956  HIT:   31510971  MISS:    5210985  HIT %:    85.8096  MISS %:    14.1904   MPKI: 26.0549
L1I PREFETCH  REQUESTED:          0  ISSUED:          0  USEFUL:          0  USELESS:          0
L1I USEFUL LOAD PREFETCHES:          0 PREFETCH ISSUED TO LOWER LEVEL:          0  ACCURACY: -nan
L1I TIMELY PREFETCHES:          0 LATE PREFETCHES: 0 DROPPED PREFETCHES: 0
L1I PREFETCHES SAME FILL-ORIGIN LEVEL: 0 DIFFERENT FILL-ORIGIN LEVEL: 0
L1I AVERAGE MISS LATENCY: 27.5732 cycles
L1I RQ	ACCESS:   57288050	FORWARD:          0	MERGED:   18889955	TO_CACHE:   38398095

BTB TOTAL     ACCESS:   22827168  HIT:   17699490  MISS:    5127678  HIT %:     77.537  MISS %:     22.463   MPKI: 25.6384
BTB BRANCH_DIRECT_JUMP	ACCESS:    1840942  HIT:    1534611  MISS:     306331
BTB BRANCH_INDIRECT	ACCESS:    9660731  HIT:    7262186  MISS:    2398545
BTB BRANCH_CONDITIONAL	ACCESS:    4665085  HIT:    4182126  MISS:     482959
BTB BRANCH_DIRECT_CALL	ACCESS:    2620364  HIT:    2026741  MISS:     593623
BTB BRANCH_INDIRECT_CALL	ACCESS:     705579  HIT:     643161  MISS:      62418
BTB BRANCH_RETURN	ACCESS:    3334467  HIT:    2050665  MISS:    1283802
BTB BRANCH_OTHER ACCESS:          0  HIT:          0  MISS:          0

L2C TOTAL     ACCESS:    9314408  HIT:    5432344  MISS:    3882064  HIT %:    58.3219  MISS %:    41.6781   MPKI: 19.4103
L2C LOAD      ACCESS:    7359172  HIT:    3917924  MISS:    3441248  HIT %:    53.2387  MISS %:    46.7613   MPKI: 17.2062
L2C DATA LOAD MPKI: 5.74074
L2C INSTRUCTION LOAD MPKI: 11.4655
L2C RFO       ACCESS:     354022  HIT:     182029  MISS:     171993  HIT %:    51.4174  MISS %:    48.5826   MPKI: 0.859965
L2C PREFETCH  ACCESS:      18189  HIT:      14220  MISS:       3969  HIT %:    78.1791  MISS %:    21.8209   MPKI: 0.019845
AGUS PREFETCH L1 MISS: 0
L2C DATA PREFETCH MPKI: 0.019845
L2C INSTRUCTION PREFETCH MPKI: 0
L2C WRITEBACK ACCESS:    1000674  HIT:     946015  MISS:      54659  HIT %:    94.5378  MISS %:    5.46222   MPKI: 0.273295
L2C LOAD TRANSLATION ACCESS:     579348  HIT:     369829  MISS:     209519  HIT %:    63.8354  MISS %:    36.1646   MPKI: 1.04759
L2C TRANSLATION FROM L1D PREFETCHER ACCESS:       3003  HIT:       2327  MISS:        676  HIT %:    77.4892  MISS %:    22.5108   MPKI: 0.00338
L2C PREFETCH  REQUESTED:          0  ISSUED:          0  USEFUL:       1928  USELESS:       2709
L2C USEFUL LOAD PREFETCHES:       1928 PREFETCH ISSUED TO LOWER LEVEL:       3969  ACCURACY: 48.5765
L2C TIMELY PREFETCHES:       1928 LATE PREFETCHES: 0 DROPPED PREFETCHES: 0
L2C PREFETCHES SAME FILL-ORIGIN LEVEL: 0 DIFFERENT FILL-ORIGIN LEVEL: 0
L2C AVERAGE MISS LATENCY: 40.3023 cycles
L2C RQ	ACCESS:    8295614	FORWARD:          0	MERGED:          0	TO_CACHE:    8295545
L2C WQ	ACCESS:    1000674	FORWARD:         69	MERGED:          0	TO_CACHE:    1000674
L2C PQ	ACCESS:      18189	FORWARD:          0	MERGED:          0	TO_CACHE:      18189

L2C Instructions Evicting Data 804757
L2C Translations Evicting Data 75187
L2C Data Evicting Data 478087
L2C Instructions Evicting Instructions 1366258
L2C Translations Evicting Instructions 121967
L2C Data Evicting Instructions 773809
L2C Instructions Evicting Translations 122085
L2C Translations Evicting Translations 13041
L2C Data Evicting Translations 72214
L2C Dense regions hint from L2: 0
PSCL5 TOTAL     ACCESS:     459072  HIT:     459072  MISS:          0  HIT %:        100  MISS %:          0   MPKI: 0
PSCL5 LOAD TRANSLATION ACCESS:     457271  HIT:     457271  MISS:          0  HIT %:        100  MISS %:          0   MPKI: 0
PSCL5 TRANSLATION FROM L1D PREFETCHER ACCESS:       1801  HIT:       1801  MISS:          0  HIT %:        100  MISS %:          0   MPKI: 0
PSCL5 PREFETCH  REQUESTED:          0  ISSUED:          0  USEFUL:          0  USELESS:          0
PSCL5 USEFUL LOAD PREFETCHES:          0 PREFETCH ISSUED TO LOWER LEVEL:          0  ACCURACY: -nan
PSCL5 TIMELY PREFETCHES:          0 LATE PREFETCHES: 0 DROPPED PREFETCHES: 0
PSCL5 PREFETCHES SAME FILL-ORIGIN LEVEL: 0 DIFFERENT FILL-ORIGIN LEVEL: 0

PSCL4 TOTAL     ACCESS:     422502  HIT:     421219  MISS:       1283  HIT %:    99.6963  MISS %:   0.303667   MPKI: 0.006415
PSCL4 LOAD TRANSLATION ACCESS:     420772  HIT:     419489  MISS:       1283  HIT %:    99.6951  MISS %:   0.304916   MPKI: 0.006415
PSCL4 TRANSLATION FROM L1D PREFETCHER ACCESS:       1730  HIT:       1730  MISS:          0  HIT %:        100  MISS %:          0   MPKI: 0
PSCL4 PREFETCH  REQUESTED:          0  ISSUED:          0  USEFUL:          0  USELESS:          0
PSCL4 USEFUL LOAD PREFETCHES:          0 PREFETCH ISSUED TO LOWER LEVEL:          0  ACCURACY: -nan
PSCL4 TIMELY PREFETCHES:          0 LATE PREFETCHES: 0 DROPPED PREFETCHES: 0
PSCL4 PREFETCHES SAME FILL-ORIGIN LEVEL: 0 DIFFERENT FILL-ORIGIN LEVEL: 0

PSCL3 TOTAL     ACCESS:     455420  HIT:     451579  MISS:       3841  HIT %:    99.1566  MISS %:   0.843397   MPKI: 0.019205
PSCL3 LOAD TRANSLATION ACCESS:     453650  HIT:     449809  MISS:       3841  HIT %:    99.1533  MISS %:   0.846688   MPKI: 0.019205
PSCL3 TRANSLATION FROM L1D PREFETCHER ACCESS:       1770  HIT:       1770  MISS:          0  HIT %:        100  MISS %:          0   MPKI: 0
PSCL3 PREFETCH  REQUESTED:          0  ISSUED:          0  USEFUL:          0  USELESS:          0
PSCL3 USEFUL LOAD PREFETCHES:          0 PREFETCH ISSUED TO LOWER LEVEL:          0  ACCURACY: -nan
PSCL3 TIMELY PREFETCHES:          0 LATE PREFETCHES: 0 DROPPED PREFETCHES: 0
PSCL3 PREFETCHES SAME FILL-ORIGIN LEVEL: 0 DIFFERENT FILL-ORIGIN LEVEL: 0

PSCL2 TOTAL     ACCESS:     458511  HIT:     340629  MISS:     117882  HIT %:    74.2903  MISS %:    25.7097   MPKI: 0.58941
PSCL2 LOAD TRANSLATION ACCESS:     458178  HIT:     340296  MISS:     117882  HIT %:    74.2716  MISS %:    25.7284   MPKI: 0.58941
PSCL2 TRANSLATION FROM L1D PREFETCHER ACCESS:        333  HIT:        333  MISS:          0  HIT %:        100  MISS %:          0   MPKI: 0
PSCL2 PREFETCH  REQUESTED:          0  ISSUED:          0  USEFUL:          0  USELESS:          0
PSCL2 USEFUL LOAD PREFETCHES:          0 PREFETCH ISSUED TO LOWER LEVEL:          0  ACCURACY: -nan
PSCL2 TIMELY PREFETCHES:          0 LATE PREFETCHES: 0 DROPPED PREFETCHES: 0
PSCL2 PREFETCHES SAME FILL-ORIGIN LEVEL: 0 DIFFERENT FILL-ORIGIN LEVEL: 0

LLC TOTAL     ACCESS:    4296555  HIT:    4031645  MISS:     264910  HIT %:    93.8344  MISS %:    6.16564   MPKI: 1.32455
LLC LOAD      ACCESS:    3441248  HIT:    3226271  MISS:     214977  HIT %:    93.7529  MISS %:    6.24707   MPKI: 1.07488
LLC RFO       ACCESS:     171993  HIT:     128076  MISS:      43917  HIT %:    74.4658  MISS %:    25.5342   MPKI: 0.219585
LLC PREFETCH  ACCESS:       3969  HIT:       3898  MISS:         71  HIT %:    98.2111  MISS %:    1.78886   MPKI: 0.000355
AGUS PREFETCH L1 MISS: 0
LLC WRITEBACK ACCESS:     469150  HIT:     467296  MISS:       1854  HIT %:    99.6048  MISS %:   0.395183   MPKI: 0.00927
LLC LOAD TRANSLATION ACCESS:     209519  HIT:     205459  MISS:       4060  HIT %:    98.0622  MISS %:    1.93777   MPKI: 0.0203
LLC TRANSLATION FROM L1D PREFETCHER ACCESS:        676  HIT:        645  MISS:         31  HIT %:    95.4142  MISS %:     4.5858   MPKI: 0.000155
LLC PREFETCH  REQUESTED:          0  ISSUED:          0  USEFUL:         12  USELESS:         72
LLC USEFUL LOAD PREFETCHES:         12 PREFETCH ISSUED TO LOWER LEVEL:         71  ACCURACY: 16.9014
LLC TIMELY PREFETCHES:         12 LATE PREFETCHES: 0 DROPPED PREFETCHES: 0
LLC PREFETCHES SAME FILL-ORIGIN LEVEL: 0 DIFFERENT FILL-ORIGIN LEVEL: 0
LLC AVERAGE MISS LATENCY: 157.157 cycles
LLC RQ	ACCESS:    3823436	FORWARD:          0	MERGED:          0	TO_CACHE:    3823436
LLC WQ	ACCESS:     469150	FORWARD:          0	MERGED:          0	TO_CACHE:     469150
LLC PQ	ACCESS:       3969	FORWARD:          0	MERGED:          0	TO_CACHE:       3969

LLC Dense regions hint to LLC: 0

RAW hits: 2757346
Loads Generated: 44830005
Loads sent to L1D: 42072659
Stores Generated: 20321689
Stores sent to L1D: 20321693
Major fault: 0 Minor fault: 4273
Allocated PAGES: 4273
Completed 
Accuracy : 86.551
Number of unique groups: 2587663

DRAM Statistics
 CHANNEL 0
 RQ ROW_BUFFER_HIT:      37831  ROW_BUFFER_MISS:     225225
 DBUS_CONGESTED:        118
 WQ ROW_BUFFER_HIT:      21506  ROW_BUFFER_MISS:     186645  FULL:          0

 AVG_CONGESTED_CYCLE: 4
 All warmup complete: 2
Channel 0 Bank busy for read cycles: 0
Channel 0 Bank busy for write cycles: 0
Channel 0
Rank 0
0banks busy for read cycles: 421138489
0banks busy for write cycles: 129037
1banks busy for read cycles: 25836955
1banks busy for write cycles: 17849936
2banks busy for read cycles: 3163308
2banks busy for write cycles: 3814627
3banks busy for read cycles: 425793
3banks busy for write cycles: 1075624
4banks busy for read cycles: 193024
4banks busy for write cycles: 447086
5banks busy for read cycles: 95433
5banks busy for write cycles: 234394
6banks busy for read cycles: 50277
6banks busy for write cycles: 170021
7banks busy for read cycles: 38841
7banks busy for write cycles: 160690
8banks busy for read cycles: 51929
8banks busy for write cycles: 237491

CPU 0 Branch Prediction Accuracy: 99.805% MPKI: 0.35292 Average ROB Occupancy at Mispredict: 35.3437
Branch types
NOT_BRANCH: 163812004 81.906%
BRANCH_DIRECT_JUMP: 1840942 0.920471%
BRANCH_INDIRECT: 9660731 4.83037%
BRANCH_CONDITIONAL: 18025786 9.01289%
BRANCH_DIRECT_CALL: 2620364 1.31018%
BRANCH_INDIRECT_CALL: 705579 0.352789%
BRANCH_RETURN: 3334467 1.66723%
BRANCH_OTHER: 0 0%

DRAM PAGES: 1048576
Allocated PAGES: 4273
