
*** ChampSim Multicore Out-of-Order Simulator ***

Warmup Instructions: 50000000
Simulation Instructions: 200000000
Number of CPUs: 1
LLC sets: 2048
LLC ways: 16
Off-chip DRAM Size: 4096 MB Channels: 1 Width: 64-bit Data Rate: 6400 MT/s
CPU 0 runs traces/spec2k17/srv_4.champsimtrace.xz
.xz
BTB has LRU replacement policy
ITLB has LRU replacement policy
DTLB has LRU replacement policy
STLB has LRU replacement policy
L1I has LRU replacement policy
L1D has LRU replacement policy
Initialize SRRIP state for L2C
Initialize DRRIP state for LLC
Heartbeat CPU 0 instructions: 10000001 cycles: 2767089 heartbeat IPC: 3.61391 cumulative IPC: 3.61391 (Simulation time: 0 hr 0 min 37 sec) 
Heartbeat CPU 0 instructions: 20000002 cycles: 5523571 heartbeat IPC: 3.62781 cumulative IPC: 3.62085 (Simulation time: 0 hr 1 min 13 sec) 
Heartbeat CPU 0 instructions: 30000000 cycles: 8278559 heartbeat IPC: 3.62978 cumulative IPC: 3.62382 (Simulation time: 0 hr 1 min 50 sec) 
*** Reached end of trace for Core: 0 Repeating trace: traces/spec2k17/srv_4.champsimtrace.xz
Heartbeat CPU 0 instructions: 40000002 cycles: 11039215 heartbeat IPC: 3.62233 cumulative IPC: 3.62345 (Simulation time: 0 hr 2 min 42 sec) 
Heartbeat CPU 0 instructions: 50000003 cycles: 13796782 heartbeat IPC: 3.62639 cumulative IPC: 3.62403 (Simulation time: 0 hr 3 min 17 sec) 

Warmup complete CPU 0 instructions: 50000003 cycles: 13796782 (Simulation time: 0 hr 3 min 17 sec) 

Heartbeat CPU 0 instructions: 60000001 cycles: 34953063 heartbeat IPC: 0.472673 cumulative IPC: 0.472673 (Simulation time: 0 hr 4 min 7 sec) 
*** Reached end of trace for Core: 0 Repeating trace: traces/spec2k17/srv_4.champsimtrace.xz
Heartbeat CPU 0 instructions: 70000000 cycles: 57042120 heartbeat IPC: 0.452713 cumulative IPC: 0.462478 (Simulation time: 0 hr 5 min 27 sec) 
Heartbeat CPU 0 instructions: 80000001 cycles: 78275985 heartbeat IPC: 0.470946 cumulative IPC: 0.465266 (Simulation time: 0 hr 6 min 21 sec) 
Heartbeat CPU 0 instructions: 90000002 cycles: 99595958 heartbeat IPC: 0.469044 cumulative IPC: 0.466205 (Simulation time: 0 hr 7 min 36 sec) 
*** Reached end of trace for Core: 0 Repeating trace: traces/spec2k17/srv_4.champsimtrace.xz
Heartbeat CPU 0 instructions: 100000000 cycles: 121510452 heartbeat IPC: 0.456319 cumulative IPC: 0.464194 (Simulation time: 0 hr 8 min 29 sec) 
Heartbeat CPU 0 instructions: 110000000 cycles: 143036601 heartbeat IPC: 0.464551 cumulative IPC: 0.464253 (Simulation time: 0 hr 9 min 45 sec) 
Heartbeat CPU 0 instructions: 120000001 cycles: 164389293 heartbeat IPC: 0.468325 cumulative IPC: 0.464831 (Simulation time: 0 hr 11 min 12 sec) 
*** Reached end of trace for Core: 0 Repeating trace: traces/spec2k17/srv_4.champsimtrace.xz
Heartbeat CPU 0 instructions: 130000001 cycles: 185809513 heartbeat IPC: 0.466849 cumulative IPC: 0.465082 (Simulation time: 0 hr 12 min 10 sec) 
Heartbeat CPU 0 instructions: 140000002 cycles: 207475775 heartbeat IPC: 0.461547 cumulative IPC: 0.464686 (Simulation time: 0 hr 12 min 53 sec) 
Heartbeat CPU 0 instructions: 150000000 cycles: 228856034 heartbeat IPC: 0.467721 cumulative IPC: 0.464988 (Simulation time: 0 hr 13 min 35 sec) 
*** Reached end of trace for Core: 0 Repeating trace: traces/spec2k17/srv_4.champsimtrace.xz
Heartbeat CPU 0 instructions: 160000001 cycles: 250402309 heartbeat IPC: 0.464117 cumulative IPC: 0.464909 (Simulation time: 0 hr 14 min 14 sec) 
Heartbeat CPU 0 instructions: 170000000 cycles: 272004930 heartbeat IPC: 0.462907 cumulative IPC: 0.464741 (Simulation time: 0 hr 14 min 56 sec) 
Heartbeat CPU 0 instructions: 180000003 cycles: 293446874 heartbeat IPC: 0.466376 cumulative IPC: 0.464867 (Simulation time: 0 hr 15 min 37 sec) 
*** Reached end of trace for Core: 0 Repeating trace: traces/spec2k17/srv_4.champsimtrace.xz
Heartbeat CPU 0 instructions: 190000001 cycles: 314960056 heartbeat IPC: 0.464831 cumulative IPC: 0.464864 (Simulation time: 0 hr 16 min 14 sec) 
Heartbeat CPU 0 instructions: 200000000 cycles: 336583139 heartbeat IPC: 0.462469 cumulative IPC: 0.464704 (Simulation time: 0 hr 16 min 53 sec) 
Heartbeat CPU 0 instructions: 210000002 cycles: 357880509 heartbeat IPC: 0.469542 cumulative IPC: 0.465003 (Simulation time: 0 hr 17 min 34 sec) 
*** Reached end of trace for Core: 0 Repeating trace: traces/spec2k17/srv_4.champsimtrace.xz
Heartbeat CPU 0 instructions: 220000000 cycles: 379444063 heartbeat IPC: 0.463745 cumulative IPC: 0.464929 (Simulation time: 0 hr 18 min 16 sec) 
Heartbeat CPU 0 instructions: 230000000 cycles: 401147475 heartbeat IPC: 0.460757 cumulative IPC: 0.464695 (Simulation time: 0 hr 19 min 8 sec) 
Heartbeat CPU 0 instructions: 240000002 cycles: 422350530 heartbeat IPC: 0.47163 cumulative IPC: 0.465055 (Simulation time: 0 hr 20 min 6 sec) 
*** Reached end of trace for Core: 0 Repeating trace: traces/spec2k17/srv_4.champsimtrace.xz
Heartbeat CPU 0 instructions: 250000002 cycles: 443768484 heartbeat IPC: 0.466898 cumulative IPC: 0.465147 (Simulation time: 0 hr 21 min 12 sec) 
Finished CPU 0 instructions: 200000003 cycles: 429971703 cumulative IPC: 0.465147 (Simulation time: 0 hr 21 min 12 sec) 

ChampSim completed all CPUs

Region of Interest Statistics

CPU 0 cumulative IPC: 0.465147 instructions: 200000003 cycles: 429971703
ITLB TOTAL     ACCESS:   31165122  HIT:   30369847  MISS:     795275  HIT %:    97.4482  MISS %:    2.55181   MPKI: 3.97637
ITLB LOAD TRANSLATION ACCESS:   31165122  HIT:   30369847  MISS:     795275  HIT %:    97.4482  MISS %:    2.55181   MPKI: 3.97637
ITLB PREFETCH  REQUESTED:          0  ISSUED:          0  USEFUL:          0  USELESS:          0
ITLB USEFUL LOAD PREFETCHES:          0 PREFETCH ISSUED TO LOWER LEVEL:          0  ACCURACY: -nan
ITLB TIMELY PREFETCHES:          0 LATE PREFETCHES: 0 DROPPED PREFETCHES: 0
ITLB PREFETCHES SAME FILL-ORIGIN LEVEL: 0 DIFFERENT FILL-ORIGIN LEVEL: 0
ITLB AVERAGE MISS LATENCY: 13.3561 cycles
ITLB RQ	ACCESS:   38103969	FORWARD:          0	MERGED:    6737683	TO_CACHE:   31366286

DTLB TOTAL     ACCESS:   36963377  HIT:   34373768  MISS:    2589609  HIT %:    92.9941  MISS %:    7.00588   MPKI: 12.948
DTLB LOAD TRANSLATION ACCESS:   36963377  HIT:   34373768  MISS:    2589609  HIT %:    92.9941  MISS %:    7.00588   MPKI: 12.948
DTLB PREFETCH  REQUESTED:          0  ISSUED:          0  USEFUL:          0  USELESS:          0
DTLB USEFUL LOAD PREFETCHES:          0 PREFETCH ISSUED TO LOWER LEVEL:          0  ACCURACY: -nan
DTLB TIMELY PREFETCHES:          0 LATE PREFETCHES: 0 DROPPED PREFETCHES: 0
DTLB PREFETCHES SAME FILL-ORIGIN LEVEL: 0 DIFFERENT FILL-ORIGIN LEVEL: 0
DTLB AVERAGE MISS LATENCY: 13.3343 cycles
DTLB RQ	ACCESS:   47357686	FORWARD:          0	MERGED:   10247989	TO_CACHE:   37109697

STLB TOTAL     ACCESS:    5743892  HIT:    5426043  MISS:     317849  HIT %:    94.4663  MISS %:    5.53369   MPKI: 1.58924
STLB LOAD TRANSLATION ACCESS:    3384884  HIT:    3067582  MISS:     317302  HIT %:    90.6259  MISS %:    9.37409   MPKI: 1.58651
STLB TRANSLATION FROM L1D PREFETCHER ACCESS:    2359008  HIT:    2358461  MISS:        547  HIT %:    99.9768  MISS %:  0.0231877   MPKI: 0.002735
STLB PREFETCH  REQUESTED:          0  ISSUED:          0  USEFUL:        434  USELESS:        113
STLB USEFUL LOAD PREFETCHES:        434 PREFETCH ISSUED TO LOWER LEVEL:          0  ACCURACY: inf
STLB TIMELY PREFETCHES:        434 LATE PREFETCHES: 87 DROPPED PREFETCHES: 585
STLB PREFETCHES SAME FILL-ORIGIN LEVEL: 0 DIFFERENT FILL-ORIGIN LEVEL: 0
STLB AVERAGE MISS LATENCY: 47.0653 cycles
STLB RQ	ACCESS:    6434588	FORWARD:          0	MERGED:     689971	TO_CACHE:    5744617

STLB Hit, L1D data hit: 0
STLB Hit, L2C data hit: 0
STLB Hit, LLC data hit: 0
STLB Hit, LLC data miss: 0
STLB STLB hints to L2: 0
L1D TOTAL     ACCESS:   49837806  HIT:   47370406  MISS:    2467400  HIT %:    95.0491  MISS %:    4.95086   MPKI: 12.337
L1D LOAD      ACCESS:   27417320  HIT:   25292390  MISS:    2124930  HIT %:    92.2497  MISS %:    7.75032   MPKI: 10.6246
L1D RFO       ACCESS:   19390929  HIT:   19058307  MISS:     332622  HIT %:    98.2847  MISS %:    1.71535   MPKI: 1.66311
L1D PREFETCH  ACCESS:    3029557  HIT:    3019709  MISS:       9848  HIT %:    99.6749  MISS %:   0.325064   MPKI: 0.04924
AGUS PREFETCH L1 MISS: 0
L1D PREFETCH  REQUESTED:    6185514  ISSUED:    6185489  USEFUL:       8288  USELESS:       1560
L1D USEFUL LOAD PREFETCHES:       8288 PREFETCH ISSUED TO LOWER LEVEL:      18858  ACCURACY: 43.9495
L1D TIMELY PREFETCHES:       8288 LATE PREFETCHES: 8963 DROPPED PREFETCHES: 600
L1D PREFETCHES SAME FILL-ORIGIN LEVEL: 18858 DIFFERENT FILL-ORIGIN LEVEL: 0
L1D AVERAGE MISS LATENCY: 994910 cycles
L1D RQ	ACCESS:   42063122	FORWARD:          0	MERGED:   14281539	TO_CACHE:   27559934
L1D WQ	ACCESS:   20103875	FORWARD:     223870	MERGED:     306123	TO_CACHE:   19797752
L1D PQ	ACCESS:    3135785	FORWARD:          0	MERGED:      83860	TO_CACHE:    3049704

L1D UNIQUE REGIONS ACCESSED: 0
L1D REGIONS CONFLICTS: 0
L1D Cross Page Prefetch Requests: 2717308
L1D Same Page Prefetch Requests: 562657
L1D ROI Sum of L1D PQ occupancy: 42335316
L1D PREFETCHES PUSHED FROM L2C: 0
L1I TOTAL     ACCESS:   36270886  HIT:   31173591  MISS:    5097295  HIT %:    85.9466  MISS %:    14.0534   MPKI: 25.4865
L1I LOAD      ACCESS:   36270886  HIT:   31173591  MISS:    5097295  HIT %:    85.9466  MISS %:    14.0534   MPKI: 25.4865
L1I PREFETCH  REQUESTED:          0  ISSUED:          0  USEFUL:          0  USELESS:          0
L1I USEFUL LOAD PREFETCHES:          0 PREFETCH ISSUED TO LOWER LEVEL:          0  ACCURACY: -nan
L1I TIMELY PREFETCHES:          0 LATE PREFETCHES: 0 DROPPED PREFETCHES: 0
L1I PREFETCHES SAME FILL-ORIGIN LEVEL: 0 DIFFERENT FILL-ORIGIN LEVEL: 0
L1I AVERAGE MISS LATENCY: 24.5257 cycles
L1I RQ	ACCESS:   57083052	FORWARD:          0	MERGED:   18979083	TO_CACHE:   38103969

BTB TOTAL     ACCESS:   22109484  HIT:   17938624  MISS:    4170860  HIT %:    81.1354  MISS %:    18.8646   MPKI: 20.8543
BTB BRANCH_DIRECT_JUMP	ACCESS:    1732440  HIT:    1504284  MISS:     228156
BTB BRANCH_INDIRECT	ACCESS:    9572696  HIT:    7533262  MISS:    2039434
BTB BRANCH_CONDITIONAL	ACCESS:    4510201  HIT:    4135936  MISS:     374265
BTB BRANCH_DIRECT_CALL	ACCESS:    2461390  HIT:    2014294  MISS:     447096
BTB BRANCH_INDIRECT_CALL	ACCESS:     683684  HIT:     645488  MISS:      38196
BTB BRANCH_RETURN	ACCESS:    3149073  HIT:    2105360  MISS:    1043713
BTB BRANCH_OTHER ACCESS:          0  HIT:          0  MISS:          0

L2C TOTAL     ACCESS:    9003476  HIT:    5981751  MISS:    3021725  HIT %:    66.4382  MISS %:    33.5618   MPKI: 15.1086
L2C LOAD      ACCESS:    7213145  HIT:    4562571  MISS:    2650574  HIT %:    63.2536  MISS %:    36.7464   MPKI: 13.2529
L2C DATA LOAD MPKI: 4.56353
L2C INSTRUCTION LOAD MPKI: 8.68934
L2C RFO       ACCESS:     332569  HIT:     185289  MISS:     147280  HIT %:    55.7145  MISS %:    44.2855   MPKI: 0.7364
L2C PREFETCH  ACCESS:      18857  HIT:      15537  MISS:       3320  HIT %:    82.3938  MISS %:    17.6062   MPKI: 0.0166
AGUS PREFETCH L1 MISS: 0
L2C DATA PREFETCH MPKI: 0.0166
L2C INSTRUCTION PREFETCH MPKI: 0
L2C WRITEBACK ACCESS:    1016825  HIT:     964806  MISS:      52019  HIT %:    94.8842  MISS %:    5.11583   MPKI: 0.260095
L2C LOAD TRANSLATION ACCESS:     420020  HIT:     252054  MISS:     167966  HIT %:      60.01  MISS %:      39.99   MPKI: 0.83983
L2C TRANSLATION FROM L1D PREFETCHER ACCESS:       2060  HIT:       1494  MISS:        566  HIT %:    72.5243  MISS %:    27.4757   MPKI: 0.00283
L2C PREFETCH  REQUESTED:          0  ISSUED:          0  USEFUL:       1338  USELESS:       2543
L2C USEFUL LOAD PREFETCHES:       1338 PREFETCH ISSUED TO LOWER LEVEL:       3320  ACCURACY: 40.3012
L2C TIMELY PREFETCHES:       1338 LATE PREFETCHES: 0 DROPPED PREFETCHES: 0
L2C PREFETCHES SAME FILL-ORIGIN LEVEL: 0 DIFFERENT FILL-ORIGIN LEVEL: 0
L2C AVERAGE MISS LATENCY: 44.7794 cycles
L2C RQ	ACCESS:    7967917	FORWARD:          0	MERGED:          0	TO_CACHE:    7967795
L2C WQ	ACCESS:    1016825	FORWARD:        123	MERGED:          0	TO_CACHE:    1016825
L2C PQ	ACCESS:      18858	FORWARD:          0	MERGED:          0	TO_CACHE:      18857

L2C Instructions Evicting Data 625363
L2C Translations Evicting Data 65429
L2C Data Evicting Data 405397
L2C Instructions Evicting Instructions 1018505
L2C Translations Evicting Instructions 94545
L2C Data Evicting Instructions 594344
L2C Instructions Evicting Translations 94000
L2C Translations Evicting Translations 8558
L2C Data Evicting Translations 63565
L2C Dense regions hint from L2: 0
PSCL5 TOTAL     ACCESS:     318433  HIT:     318433  MISS:          0  HIT %:        100  MISS %:          0   MPKI: 0
PSCL5 LOAD TRANSLATION ACCESS:     317215  HIT:     317215  MISS:          0  HIT %:        100  MISS %:          0   MPKI: 0
PSCL5 TRANSLATION FROM L1D PREFETCHER ACCESS:       1218  HIT:       1218  MISS:          0  HIT %:        100  MISS %:          0   MPKI: 0
PSCL5 PREFETCH  REQUESTED:          0  ISSUED:          0  USEFUL:          0  USELESS:          0
PSCL5 USEFUL LOAD PREFETCHES:          0 PREFETCH ISSUED TO LOWER LEVEL:          0  ACCURACY: -nan
PSCL5 TIMELY PREFETCHES:          0 LATE PREFETCHES: 0 DROPPED PREFETCHES: 0
PSCL5 PREFETCHES SAME FILL-ORIGIN LEVEL: 0 DIFFERENT FILL-ORIGIN LEVEL: 0

PSCL4 TOTAL     ACCESS:     298022  HIT:     297261  MISS:        761  HIT %:    99.7446  MISS %:    0.25535   MPKI: 0.003805
PSCL4 LOAD TRANSLATION ACCESS:     296994  HIT:     296233  MISS:        761  HIT %:    99.7438  MISS %:   0.256234   MPKI: 0.003805
PSCL4 TRANSLATION FROM L1D PREFETCHER ACCESS:       1028  HIT:       1028  MISS:          0  HIT %:        100  MISS %:          0   MPKI: 0
PSCL4 PREFETCH  REQUESTED:          0  ISSUED:          0  USEFUL:          0  USELESS:          0
PSCL4 USEFUL LOAD PREFETCHES:          0 PREFETCH ISSUED TO LOWER LEVEL:          0  ACCURACY: -nan
PSCL4 TIMELY PREFETCHES:          0 LATE PREFETCHES: 0 DROPPED PREFETCHES: 0
PSCL4 PREFETCHES SAME FILL-ORIGIN LEVEL: 0 DIFFERENT FILL-ORIGIN LEVEL: 0

PSCL3 TOTAL     ACCESS:     317502  HIT:     315979  MISS:       1523  HIT %:    99.5203  MISS %:   0.479682   MPKI: 0.007615
PSCL3 LOAD TRANSLATION ACCESS:     316293  HIT:     314770  MISS:       1523  HIT %:    99.5185  MISS %:   0.481516   MPKI: 0.007615
PSCL3 TRANSLATION FROM L1D PREFETCHER ACCESS:       1209  HIT:       1209  MISS:          0  HIT %:        100  MISS %:          0   MPKI: 0
PSCL3 PREFETCH  REQUESTED:          0  ISSUED:          0  USEFUL:          0  USELESS:          0
PSCL3 USEFUL LOAD PREFETCHES:          0 PREFETCH ISSUED TO LOWER LEVEL:          0  ACCURACY: -nan
PSCL3 TIMELY PREFETCHES:          0 LATE PREFETCHES: 0 DROPPED PREFETCHES: 0
PSCL3 PREFETCHES SAME FILL-ORIGIN LEVEL: 0 DIFFERENT FILL-ORIGIN LEVEL: 0

PSCL2 TOTAL     ACCESS:     317996  HIT:     216996  MISS:     101000  HIT %:    68.2386  MISS %:    31.7614   MPKI: 0.505
PSCL2 LOAD TRANSLATION ACCESS:     317693  HIT:     216693  MISS:     101000  HIT %:    68.2083  MISS %:    31.7917   MPKI: 0.505
PSCL2 TRANSLATION FROM L1D PREFETCHER ACCESS:        303  HIT:        303  MISS:          0  HIT %:        100  MISS %:          0   MPKI: 0
PSCL2 PREFETCH  REQUESTED:          0  ISSUED:          0  USEFUL:          0  USELESS:          0
PSCL2 USEFUL LOAD PREFETCHES:          0 PREFETCH ISSUED TO LOWER LEVEL:          0  ACCURACY: -nan
PSCL2 TIMELY PREFETCHES:          0 LATE PREFETCHES: 0 DROPPED PREFETCHES: 0
PSCL2 PREFETCHES SAME FILL-ORIGIN LEVEL: 0 DIFFERENT FILL-ORIGIN LEVEL: 0

LLC TOTAL     ACCESS:    3399535  HIT:    3095326  MISS:     304209  HIT %:    91.0515  MISS %:    8.94855   MPKI: 1.52104
LLC LOAD      ACCESS:    2650574  HIT:    2408738  MISS:     241836  HIT %:    90.8761  MISS %:    9.12391   MPKI: 1.20918
LLC RFO       ACCESS:     147280  HIT:      98094  MISS:      49186  HIT %:    66.6037  MISS %:    33.3963   MPKI: 0.24593
LLC PREFETCH  ACCESS:       3320  HIT:       3242  MISS:         78  HIT %:    97.6506  MISS %:     2.3494   MPKI: 0.00039
AGUS PREFETCH L1 MISS: 0
LLC WRITEBACK ACCESS:     429829  HIT:     428242  MISS:       1587  HIT %:    99.6308  MISS %:   0.369217   MPKI: 0.007935
LLC LOAD TRANSLATION ACCESS:     167966  HIT:     156483  MISS:      11483  HIT %:    93.1635  MISS %:     6.8365   MPKI: 0.057415
LLC TRANSLATION FROM L1D PREFETCHER ACCESS:        566  HIT:        527  MISS:         39  HIT %:    93.1095  MISS %:    6.89046   MPKI: 0.000195
LLC PREFETCH  REQUESTED:          0  ISSUED:          0  USEFUL:         17  USELESS:         90
LLC USEFUL LOAD PREFETCHES:         17 PREFETCH ISSUED TO LOWER LEVEL:         78  ACCURACY: 21.7949
LLC TIMELY PREFETCHES:         17 LATE PREFETCHES: 0 DROPPED PREFETCHES: 0
LLC PREFETCHES SAME FILL-ORIGIN LEVEL: 0 DIFFERENT FILL-ORIGIN LEVEL: 0
LLC AVERAGE MISS LATENCY: 151.932 cycles
LLC RQ	ACCESS:    2966386	FORWARD:          0	MERGED:          0	TO_CACHE:    2966386
LLC WQ	ACCESS:     429829	FORWARD:          0	MERGED:          0	TO_CACHE:     429829
LLC PQ	ACCESS:       3320	FORWARD:          0	MERGED:          0	TO_CACHE:       3320

LLC Dense regions hint to LLC: 0

RAW hits: 2849764
Loads Generated: 44912886
Loads sent to L1D: 42063122
Stores Generated: 20103854
Stores sent to L1D: 20103875
Major fault: 0 Minor fault: 6257
Allocated PAGES: 6257
Completed 
Accuracy : 88.4507
Number of unique groups: 2549568

DRAM Statistics
 CHANNEL 0
 RQ ROW_BUFFER_HIT:      61828  ROW_BUFFER_MISS:     240794
 DBUS_CONGESTED:        177
 WQ ROW_BUFFER_HIT:      31991  ROW_BUFFER_MISS:     182790  FULL:          0

 AVG_CONGESTED_CYCLE: 4
 All warmup complete: 2
Channel 0 Bank busy for read cycles: 0
Channel 0 Bank busy for write cycles: 0
Channel 0
Rank 0
0banks busy for read cycles: 373912918
0banks busy for write cycles: 115569
1banks busy for read cycles: 27138947
1banks busy for write cycles: 16311622
2banks busy for read cycles: 3869585
2banks busy for write cycles: 3993630
3banks busy for read cycles: 486761
3banks busy for write cycles: 1397095
4banks busy for read cycles: 206977
4banks busy for write cycles: 797519
5banks busy for read cycles: 110270
5banks busy for write cycles: 503691
6banks busy for read cycles: 72862
6banks busy for write cycles: 362669
7banks busy for read cycles: 57462
7banks busy for write cycles: 266721
8banks busy for read cycles: 82075
8banks busy for write cycles: 285331

CPU 0 Branch Prediction Accuracy: 99.8614% MPKI: 0.24815 Average ROB Occupancy at Mispredict: 55.1465
Branch types
NOT_BRANCH: 164179739 82.0899%
BRANCH_DIRECT_JUMP: 1732440 0.86622%
BRANCH_INDIRECT: 9572696 4.78635%
BRANCH_CONDITIONAL: 18220803 9.1104%
BRANCH_DIRECT_CALL: 2461390 1.23069%
BRANCH_INDIRECT_CALL: 683684 0.341842%
BRANCH_RETURN: 3149073 1.57454%
BRANCH_OTHER: 0 0%

DRAM PAGES: 1048576
Allocated PAGES: 6257
