
*** ChampSim Multicore Out-of-Order Simulator ***

Warmup Instructions: 50000000
Simulation Instructions: 200000000
Number of CPUs: 1
LLC sets: 2048
LLC ways: 16
Off-chip DRAM Size: 4096 MB Channels: 1 Width: 64-bit Data Rate: 6400 MT/s
CPU 0 runs traces/spec2k17/srv_34.champsimtrace.xz
.xz
BTB has LRU replacement policy
ITLB has LRU replacement policy
DTLB has LRU replacement policy
STLB has LRU replacement policy
L1I has LRU replacement policy
L1D has LRU replacement policy
Initialize SRRIP state for L2C
Initialize DRRIP state for LLC
Heartbeat CPU 0 instructions: 10000001 cycles: 2935901 heartbeat IPC: 3.40611 cumulative IPC: 3.40611 (Simulation time: 0 hr 0 min 54 sec) 
Heartbeat CPU 0 instructions: 20000002 cycles: 5877851 heartbeat IPC: 3.39911 cumulative IPC: 3.4026 (Simulation time: 0 hr 1 min 55 sec) 
Heartbeat CPU 0 instructions: 30000001 cycles: 8811172 heartbeat IPC: 3.4091 cumulative IPC: 3.40477 (Simulation time: 0 hr 3 min 5 sec) 
*** Reached end of trace for Core: 0 Repeating trace: traces/spec2k17/srv_34.champsimtrace.xz
Heartbeat CPU 0 instructions: 40000001 cycles: 11748371 heartbeat IPC: 3.4046 cumulative IPC: 3.40473 (Simulation time: 0 hr 4 min 21 sec) 
Heartbeat CPU 0 instructions: 50000002 cycles: 14689095 heartbeat IPC: 3.40052 cumulative IPC: 3.40389 (Simulation time: 0 hr 5 min 41 sec) 

Warmup complete CPU 0 instructions: 50000002 cycles: 14689095 (Simulation time: 0 hr 5 min 41 sec) 

Heartbeat CPU 0 instructions: 60000001 cycles: 34175016 heartbeat IPC: 0.513191 cumulative IPC: 0.513191 (Simulation time: 0 hr 7 min 21 sec) 
*** Reached end of trace for Core: 0 Repeating trace: traces/spec2k17/srv_34.champsimtrace.xz
Heartbeat CPU 0 instructions: 70000001 cycles: 53482042 heartbeat IPC: 0.517946 cumulative IPC: 0.515558 (Simulation time: 0 hr 9 min 7 sec) 
Heartbeat CPU 0 instructions: 80000003 cycles: 72918512 heartbeat IPC: 0.514497 cumulative IPC: 0.515204 (Simulation time: 0 hr 11 min 6 sec) 
Heartbeat CPU 0 instructions: 90000001 cycles: 92297482 heartbeat IPC: 0.516023 cumulative IPC: 0.515408 (Simulation time: 0 hr 13 min 18 sec) 
*** Reached end of trace for Core: 0 Repeating trace: traces/spec2k17/srv_34.champsimtrace.xz
Heartbeat CPU 0 instructions: 100000000 cycles: 111603086 heartbeat IPC: 0.517984 cumulative IPC: 0.515921 (Simulation time: 0 hr 15 min 40 sec) 
Heartbeat CPU 0 instructions: 110000000 cycles: 131001581 heartbeat IPC: 0.515504 cumulative IPC: 0.515852 (Simulation time: 0 hr 18 min 13 sec) 
Heartbeat CPU 0 instructions: 120000000 cycles: 150328631 heartbeat IPC: 0.51741 cumulative IPC: 0.516074 (Simulation time: 0 hr 20 min 56 sec) 
*** Reached end of trace for Core: 0 Repeating trace: traces/spec2k17/srv_34.champsimtrace.xz
Heartbeat CPU 0 instructions: 130000002 cycles: 169638818 heartbeat IPC: 0.517861 cumulative IPC: 0.516297 (Simulation time: 0 hr 23 min 50 sec) 
Heartbeat CPU 0 instructions: 140000001 cycles: 188981738 heartbeat IPC: 0.516985 cumulative IPC: 0.516373 (Simulation time: 0 hr 26 min 56 sec) 
Heartbeat CPU 0 instructions: 150000001 cycles: 208312888 heartbeat IPC: 0.5173 cumulative IPC: 0.516465 (Simulation time: 0 hr 30 min 41 sec) 
Heartbeat CPU 0 instructions: 160000000 cycles: 227646279 heartbeat IPC: 0.51724 cumulative IPC: 0.516536 (Simulation time: 0 hr 34 min 47 sec) 
*** Reached end of trace for Core: 0 Repeating trace: traces/spec2k17/srv_34.champsimtrace.xz
Heartbeat CPU 0 instructions: 170000000 cycles: 246953950 heartbeat IPC: 0.517929 cumulative IPC: 0.516652 (Simulation time: 0 hr 38 min 54 sec) 
Heartbeat CPU 0 instructions: 180000000 cycles: 266323215 heartbeat IPC: 0.516282 cumulative IPC: 0.516623 (Simulation time: 0 hr 42 min 28 sec) 
Heartbeat CPU 0 instructions: 190000000 cycles: 285670451 heartbeat IPC: 0.51687 cumulative IPC: 0.516641 (Simulation time: 0 hr 46 min 7 sec) 
*** Reached end of trace for Core: 0 Repeating trace: traces/spec2k17/srv_34.champsimtrace.xz
Heartbeat CPU 0 instructions: 200000000 cycles: 304929406 heartbeat IPC: 0.519239 cumulative IPC: 0.516813 (Simulation time: 0 hr 48 min 32 sec) 
Heartbeat CPU 0 instructions: 210000000 cycles: 324314532 heartbeat IPC: 0.515859 cumulative IPC: 0.516753 (Simulation time: 0 hr 50 min 18 sec) 
Heartbeat CPU 0 instructions: 220000000 cycles: 343530025 heartbeat IPC: 0.520413 cumulative IPC: 0.516967 (Simulation time: 0 hr 52 min 10 sec) 
*** Reached end of trace for Core: 0 Repeating trace: traces/spec2k17/srv_34.champsimtrace.xz
Heartbeat CPU 0 instructions: 230000003 cycles: 362805729 heartbeat IPC: 0.518788 cumulative IPC: 0.517068 (Simulation time: 0 hr 54 min 1 sec) 
Heartbeat CPU 0 instructions: 240000000 cycles: 382210383 heartbeat IPC: 0.51534 cumulative IPC: 0.516977 (Simulation time: 0 hr 55 min 23 sec) 
Heartbeat CPU 0 instructions: 250000001 cycles: 401472703 heartbeat IPC: 0.519148 cumulative IPC: 0.517085 (Simulation time: 0 hr 56 min 34 sec) 
Finished CPU 0 instructions: 200000001 cycles: 386783609 cumulative IPC: 0.517085 (Simulation time: 0 hr 56 min 34 sec) 

ChampSim completed all CPUs

Region of Interest Statistics

CPU 0 cumulative IPC: 0.517085 instructions: 200000001 cycles: 386783609
ITLB TOTAL     ACCESS:   33773322  HIT:   32231167  MISS:    1542155  HIT %:    95.4338  MISS %:    4.56619   MPKI: 7.71077
ITLB LOAD TRANSLATION ACCESS:   33773322  HIT:   32231167  MISS:    1542155  HIT %:    95.4338  MISS %:    4.56619   MPKI: 7.71077
ITLB PREFETCH  REQUESTED:          0  ISSUED:          0  USEFUL:          0  USELESS:          0
ITLB USEFUL LOAD PREFETCHES:          0 PREFETCH ISSUED TO LOWER LEVEL:          0  ACCURACY: -nan
ITLB TIMELY PREFETCHES:          0 LATE PREFETCHES: 0 DROPPED PREFETCHES: 0
ITLB PREFETCHES SAME FILL-ORIGIN LEVEL: 0 DIFFERENT FILL-ORIGIN LEVEL: 0
ITLB AVERAGE MISS LATENCY: 9.19426 cycles
ITLB RQ	ACCESS:   40669413	FORWARD:          0	MERGED:    6401485	TO_CACHE:   34267928

DTLB TOTAL     ACCESS:   39934282  HIT:   38424759  MISS:    1509523  HIT %:      96.22  MISS %:    3.78002   MPKI: 7.54761
DTLB LOAD TRANSLATION ACCESS:   39934282  HIT:   38424759  MISS:    1509523  HIT %:      96.22  MISS %:    3.78002   MPKI: 7.54761
DTLB PREFETCH  REQUESTED:          0  ISSUED:          0  USEFUL:          0  USELESS:          0
DTLB USEFUL LOAD PREFETCHES:          0 PREFETCH ISSUED TO LOWER LEVEL:          0  ACCURACY: -nan
DTLB TIMELY PREFETCHES:          0 LATE PREFETCHES: 0 DROPPED PREFETCHES: 0
DTLB PREFETCHES SAME FILL-ORIGIN LEVEL: 0 DIFFERENT FILL-ORIGIN LEVEL: 0
DTLB AVERAGE MISS LATENCY: 14.5793 cycles
DTLB RQ	ACCESS:   61100140	FORWARD:          0	MERGED:   20769682	TO_CACHE:   40330458

STLB TOTAL     ACCESS:    4824817  HIT:    4748140  MISS:      76677  HIT %:    98.4108  MISS %:    1.58922   MPKI: 0.383385
STLB LOAD TRANSLATION ACCESS:    3051678  HIT:    2977028  MISS:      74650  HIT %:    97.5538  MISS %:     2.4462   MPKI: 0.37325
STLB TRANSLATION FROM L1D PREFETCHER ACCESS:    1773139  HIT:    1771112  MISS:       2027  HIT %:    99.8857  MISS %:   0.114317   MPKI: 0.010135
STLB PREFETCH  REQUESTED:          0  ISSUED:          0  USEFUL:       1911  USELESS:        118
STLB USEFUL LOAD PREFETCHES:       1911 PREFETCH ISSUED TO LOWER LEVEL:          0  ACCURACY: inf
STLB TIMELY PREFETCHES:       1911 LATE PREFETCHES: 550 DROPPED PREFETCHES: 1757
STLB PREFETCHES SAME FILL-ORIGIN LEVEL: 0 DIFFERENT FILL-ORIGIN LEVEL: 0
STLB AVERAGE MISS LATENCY: 116.365 cycles
STLB RQ	ACCESS:    5900946	FORWARD:          0	MERGED:    1073822	TO_CACHE:    4827124

STLB Hit, L1D data hit: 0
STLB Hit, L2C data hit: 0
STLB Hit, LLC data hit: 0
STLB Hit, LLC data miss: 0
STLB STLB hints to L2: 0
L1D TOTAL     ACCESS:   51265486  HIT:   44501468  MISS:    6764018  HIT %:    86.8059  MISS %:    13.1941   MPKI: 33.8201
L1D LOAD      ACCESS:   26733839  HIT:   23831202  MISS:    2902637  HIT %:    89.1425  MISS %:    10.8575   MPKI: 14.5132
L1D RFO       ACCESS:   22325535  HIT:   18643068  MISS:    3682467  HIT %:    83.5056  MISS %:    16.4944   MPKI: 18.4123
L1D PREFETCH  ACCESS:    2206112  HIT:    2027198  MISS:     178914  HIT %:    91.8901  MISS %:    8.10992   MPKI: 0.89457
AGUS PREFETCH L1 MISS: 0
L1D PREFETCH  REQUESTED:    5851089  ISSUED:    5851075  USEFUL:     165122  USELESS:      13797
L1D USEFUL LOAD PREFETCHES:     165122 PREFETCH ISSUED TO LOWER LEVEL:     472311  ACCURACY: 34.9604
L1D TIMELY PREFETCHES:     165122 LATE PREFETCHES: 293382 DROPPED PREFETCHES: 2681
L1D PREFETCHES SAME FILL-ORIGIN LEVEL: 472311 DIFFERENT FILL-ORIGIN LEVEL: 0
L1D AVERAGE MISS LATENCY: 9.0926e+06 cycles
L1D RQ	ACCESS:   45259156	FORWARD:          0	MERGED:   17850456	TO_CACHE:   27127759
L1D WQ	ACCESS:   34174261	FORWARD:     298740	MERGED:     201880	TO_CACHE:   33972381
L1D PQ	ACCESS:    3001807	FORWARD:          0	MERGED:     134740	TO_CACHE:    2849268

L1D UNIQUE REGIONS ACCESSED: 0
L1D REGIONS CONFLICTS: 0
L1D Cross Page Prefetch Requests: 1527782
L1D Same Page Prefetch Requests: 1937447
L1D ROI Sum of L1D PQ occupancy: 40618020
L1D PREFETCHES PUSHED FROM L2C: 0
L1I TOTAL     ACCESS:   38002777  HIT:   28873086  MISS:    9129691  HIT %:    75.9763  MISS %:    24.0237   MPKI: 45.6485
L1I LOAD      ACCESS:   38002777  HIT:   28873086  MISS:    9129691  HIT %:    75.9763  MISS %:    24.0237   MPKI: 45.6485
L1I PREFETCH  REQUESTED:          0  ISSUED:          0  USEFUL:          0  USELESS:          0
L1I USEFUL LOAD PREFETCHES:          0 PREFETCH ISSUED TO LOWER LEVEL:          0  ACCURACY: -nan
L1I TIMELY PREFETCHES:          0 LATE PREFETCHES: 0 DROPPED PREFETCHES: 0
L1I PREFETCHES SAME FILL-ORIGIN LEVEL: 0 DIFFERENT FILL-ORIGIN LEVEL: 0
L1I AVERAGE MISS LATENCY: 16.4439 cycles
L1I RQ	ACCESS:   58971387	FORWARD:          0	MERGED:   18301974	TO_CACHE:   40669413

BTB TOTAL     ACCESS:   25683983  HIT:   24137267  MISS:    1546716  HIT %:    93.9779  MISS %:     6.0221   MPKI: 7.73358
BTB BRANCH_DIRECT_JUMP	ACCESS:    1661224  HIT:    1651564  MISS:       9660
BTB BRANCH_INDIRECT	ACCESS:    9989440  HIT:    9473851  MISS:     515589
BTB BRANCH_CONDITIONAL	ACCESS:    7185443  HIT:    7172058  MISS:      13385
BTB BRANCH_DIRECT_CALL	ACCESS:    2827619  HIT:    2794301  MISS:      33318
BTB BRANCH_INDIRECT_CALL	ACCESS:     596257  HIT:     484762  MISS:     111495
BTB BRANCH_RETURN	ACCESS:    3424000  HIT:    2560731  MISS:     863269
BTB BRANCH_OTHER ACCESS:          0  HIT:          0  MISS:          0

L2C TOTAL     ACCESS:   20317781  HIT:   13762125  MISS:    6555656  HIT %:    67.7344  MISS %:    32.2656   MPKI: 32.7783
L2C LOAD      ACCESS:   11738833  HIT:    9312992  MISS:    2425841  HIT %:    79.3349  MISS %:    20.6651   MPKI: 12.1292
L2C DATA LOAD MPKI: 9.41461
L2C INSTRUCTION LOAD MPKI: 2.71459
L2C RFO       ACCESS:    3682450  HIT:     176856  MISS:    3505594  HIT %:    4.80267  MISS %:    95.1973   MPKI: 17.528
L2C PREFETCH  ACCESS:     472243  HIT:      26079  MISS:     446164  HIT %:    5.52237  MISS %:    94.4776   MPKI: 2.23082
AGUS PREFETCH L1 MISS: 0
L2C DATA PREFETCH MPKI: 2.23082
L2C INSTRUCTION PREFETCH MPKI: 0
L2C WRITEBACK ACCESS:    4334980  HIT:    4199526  MISS:     135454  HIT %:    96.8753  MISS %:    3.12467   MPKI: 0.67727
L2C LOAD TRANSLATION ACCESS:      84252  HIT:      44104  MISS:      40148  HIT %:    52.3477  MISS %:    47.6523   MPKI: 0.20074
L2C TRANSLATION FROM L1D PREFETCHER ACCESS:       5023  HIT:       2568  MISS:       2455  HIT %:    51.1248  MISS %:    48.8752   MPKI: 0.012275
L2C PREFETCH  REQUESTED:          0  ISSUED:          0  USEFUL:       4899  USELESS:     444104
L2C USEFUL LOAD PREFETCHES:       4899 PREFETCH ISSUED TO LOWER LEVEL:     446164  ACCURACY: 1.09803
L2C TIMELY PREFETCHES:       4899 LATE PREFETCHES: 0 DROPPED PREFETCHES: 0
L2C PREFETCHES SAME FILL-ORIGIN LEVEL: 0 DIFFERENT FILL-ORIGIN LEVEL: 0
L2C AVERAGE MISS LATENCY: 160.424 cycles
L2C RQ	ACCESS:   15510689	FORWARD:          0	MERGED:          0	TO_CACHE:   15510574
L2C WQ	ACCESS:    4334980	FORWARD:        183	MERGED:          0	TO_CACHE:    4334980
L2C PQ	ACCESS:     472311	FORWARD:          0	MERGED:          0	TO_CACHE:     472243

L2C Instructions Evicting Data 502337
L2C Translations Evicting Data 38637
L2C Data Evicting Data 5305823
L2C Instructions Evicting Instructions 36792
L2C Translations Evicting Instructions 3777
L2C Data Evicting Instructions 490803
L2C Instructions Evicting Translations 3790
L2C Translations Evicting Translations 189
L2C Data Evicting Translations 38054
L2C Dense regions hint from L2: 0
PSCL5 TOTAL     ACCESS:      78398  HIT:      78398  MISS:          0  HIT %:        100  MISS %:          0   MPKI: 0
PSCL5 LOAD TRANSLATION ACCESS:      74100  HIT:      74100  MISS:          0  HIT %:        100  MISS %:          0   MPKI: 0
PSCL5 TRANSLATION FROM L1D PREFETCHER ACCESS:       4298  HIT:       4298  MISS:          0  HIT %:        100  MISS %:          0   MPKI: 0
PSCL5 PREFETCH  REQUESTED:          0  ISSUED:          0  USEFUL:          0  USELESS:          0
PSCL5 USEFUL LOAD PREFETCHES:          0 PREFETCH ISSUED TO LOWER LEVEL:          0  ACCURACY: -nan
PSCL5 TIMELY PREFETCHES:          0 LATE PREFETCHES: 0 DROPPED PREFETCHES: 0
PSCL5 PREFETCHES SAME FILL-ORIGIN LEVEL: 0 DIFFERENT FILL-ORIGIN LEVEL: 0

PSCL4 TOTAL     ACCESS:      67166  HIT:      67059  MISS:        107  HIT %:    99.8407  MISS %:   0.159307   MPKI: 0.000535
PSCL4 LOAD TRANSLATION ACCESS:      64126  HIT:      64019  MISS:        107  HIT %:    99.8331  MISS %:   0.166859   MPKI: 0.000535
PSCL4 TRANSLATION FROM L1D PREFETCHER ACCESS:       3040  HIT:       3040  MISS:          0  HIT %:        100  MISS %:          0   MPKI: 0
PSCL4 PREFETCH  REQUESTED:          0  ISSUED:          0  USEFUL:          0  USELESS:          0
PSCL4 USEFUL LOAD PREFETCHES:          0 PREFETCH ISSUED TO LOWER LEVEL:          0  ACCURACY: -nan
PSCL4 TIMELY PREFETCHES:          0 LATE PREFETCHES: 0 DROPPED PREFETCHES: 0
PSCL4 PREFETCHES SAME FILL-ORIGIN LEVEL: 0 DIFFERENT FILL-ORIGIN LEVEL: 0

PSCL3 TOTAL     ACCESS:      77955  HIT:      77739  MISS:        216  HIT %:    99.7229  MISS %:   0.277083   MPKI: 0.00108
PSCL3 LOAD TRANSLATION ACCESS:      74029  HIT:      73813  MISS:        216  HIT %:    99.7082  MISS %:   0.291778   MPKI: 0.00108
PSCL3 TRANSLATION FROM L1D PREFETCHER ACCESS:       3926  HIT:       3926  MISS:          0  HIT %:        100  MISS %:          0   MPKI: 0
PSCL3 PREFETCH  REQUESTED:          0  ISSUED:          0  USEFUL:          0  USELESS:          0
PSCL3 USEFUL LOAD PREFETCHES:          0 PREFETCH ISSUED TO LOWER LEVEL:          0  ACCURACY: -nan
PSCL3 TIMELY PREFETCHES:          0 LATE PREFETCHES: 0 DROPPED PREFETCHES: 0
PSCL3 PREFETCHES SAME FILL-ORIGIN LEVEL: 0 DIFFERENT FILL-ORIGIN LEVEL: 0

PSCL2 TOTAL     ACCESS:      77380  HIT:      67446  MISS:       9934  HIT %:    87.1621  MISS %:    12.8379   MPKI: 0.04967
PSCL2 LOAD TRANSLATION ACCESS:      74205  HIT:      64271  MISS:       9934  HIT %:    86.6128  MISS %:    13.3872   MPKI: 0.04967
PSCL2 TRANSLATION FROM L1D PREFETCHER ACCESS:       3175  HIT:       3175  MISS:          0  HIT %:        100  MISS %:          0   MPKI: 0
PSCL2 PREFETCH  REQUESTED:          0  ISSUED:          0  USEFUL:          0  USELESS:          0
PSCL2 USEFUL LOAD PREFETCHES:          0 PREFETCH ISSUED TO LOWER LEVEL:          0  ACCURACY: -nan
PSCL2 TIMELY PREFETCHES:          0 LATE PREFETCHES: 0 DROPPED PREFETCHES: 0
PSCL2 PREFETCHES SAME FILL-ORIGIN LEVEL: 0 DIFFERENT FILL-ORIGIN LEVEL: 0

LLC TOTAL     ACCESS:   10425213  HIT:    4139395  MISS:    6285818  HIT %:    39.7056  MISS %:    60.2944   MPKI: 31.4291
LLC LOAD      ACCESS:    2425841  HIT:    1607361  MISS:     818480  HIT %:    66.2599  MISS %:    33.7401   MPKI: 4.0924
LLC RFO       ACCESS:    3505559  HIT:     965960  MISS:    2539599  HIT %:    27.5551  MISS %:    72.4449   MPKI: 12.698
LLC PREFETCH  ACCESS:     446164  HIT:      17146  MISS:     429018  HIT %:    3.84298  MISS %:     96.157   MPKI: 2.14509
AGUS PREFETCH L1 MISS: 0
LLC WRITEBACK ACCESS:    4005046  HIT:    1534814  MISS:    2470232  HIT %:     38.322  MISS %:     61.678   MPKI: 12.3512
LLC LOAD TRANSLATION ACCESS:      40148  HIT:      12966  MISS:      27182  HIT %:    32.2955  MISS %:    67.7045   MPKI: 0.13591
LLC TRANSLATION FROM L1D PREFETCHER ACCESS:       2455  HIT:       1148  MISS:       1307  HIT %:    46.7617  MISS %:    53.2383   MPKI: 0.006535
LLC PREFETCH  REQUESTED:          0  ISSUED:          0  USEFUL:       1209  USELESS:     429625
LLC USEFUL LOAD PREFETCHES:       1209 PREFETCH ISSUED TO LOWER LEVEL:     429018  ACCURACY: 0.281806
LLC TIMELY PREFETCHES:       1209 LATE PREFETCHES: 0 DROPPED PREFETCHES: 0
LLC PREFETCHES SAME FILL-ORIGIN LEVEL: 0 DIFFERENT FILL-ORIGIN LEVEL: 0
LLC AVERAGE MISS LATENCY: 136.668 cycles
LLC RQ	ACCESS:    5974054	FORWARD:          0	MERGED:          0	TO_CACHE:    5974019
LLC WQ	ACCESS:    4005046	FORWARD:         35	MERGED:          0	TO_CACHE:    4005046
LLC PQ	ACCESS:     446164	FORWARD:          0	MERGED:          0	TO_CACHE:     446164

LLC Dense regions hint to LLC: 0

RAW hits: 2485885
Loads Generated: 47745046
Loads sent to L1D: 45259156
Stores Generated: 34174248
Stores sent to L1D: 34174261
Major fault: 0 Minor fault: 8817
Allocated PAGES: 8817
Completed 
Accuracy : 79.0805
Number of unique groups: 3180197

DRAM Statistics
 CHANNEL 0
 RQ ROW_BUFFER_HIT:    1828042  ROW_BUFFER_MISS:    1986968
 DBUS_CONGESTED:       2079
 WQ ROW_BUFFER_HIT:     517605  ROW_BUFFER_MISS:    2089992  FULL:      63729

 AVG_CONGESTED_CYCLE: 3
 All warmup complete: 2
Channel 0 Bank busy for read cycles: 0
Channel 0 Bank busy for write cycles: 0
Channel 0
Rank 0
0banks busy for read cycles: 178457359
0banks busy for write cycles: 270060
1banks busy for read cycles: 28989867
1banks busy for write cycles: 38050596
2banks busy for read cycles: 11277871
2banks busy for write cycles: 13353489
3banks busy for read cycles: 15211623
3banks busy for write cycles: 5717442
4banks busy for read cycles: 5763025
4banks busy for write cycles: 3616178
5banks busy for read cycles: 4848777
5banks busy for write cycles: 3170671
6banks busy for read cycles: 6015853
6banks busy for write cycles: 3208099
7banks busy for read cycles: 7202538
7banks busy for write cycles: 5820011
8banks busy for read cycles: 20700831
8banks busy for write cycles: 35109320

CPU 0 Branch Prediction Accuracy: 99.9482% MPKI: 0.079205 Average ROB Occupancy at Mispredict: 122.918
Branch types
NOT_BRANCH: 169447800 84.7239%
BRANCH_DIRECT_JUMP: 1661224 0.830612%
BRANCH_INDIRECT: 9989440 4.99472%
BRANCH_CONDITIONAL: 12053307 6.02665%
BRANCH_DIRECT_CALL: 2827619 1.41381%
BRANCH_INDIRECT_CALL: 596257 0.298128%
BRANCH_RETURN: 3424000 1.712%
BRANCH_OTHER: 0 0%

DRAM PAGES: 1048576
Allocated PAGES: 8817
