
*** ChampSim Multicore Out-of-Order Simulator ***

Warmup Instructions: 50000000
Simulation Instructions: 200000000
Number of CPUs: 1
LLC sets: 2048
LLC ways: 16
Off-chip DRAM Size: 4096 MB Channels: 1 Width: 64-bit Data Rate: 6400 MT/s
CPU 0 runs traces/spec2k17/srv_56.champsimtrace.xz
.xz
BTB has LRU replacement policy
ITLB has LRU replacement policy
DTLB has LRU replacement policy
STLB has LRU replacement policy
L1I has LRU replacement policy
L1D has LRU replacement policy
Initialize SRRIP state for L2C
Initialize DRRIP state for LLC
Heartbeat CPU 0 instructions: 10000002 cycles: 2774113 heartbeat IPC: 3.60476 cumulative IPC: 3.60476 (Simulation time: 0 hr 0 min 33 sec) 
Heartbeat CPU 0 instructions: 20000003 cycles: 5603099 heartbeat IPC: 3.53484 cumulative IPC: 3.56945 (Simulation time: 0 hr 1 min 8 sec) 
Heartbeat CPU 0 instructions: 30000000 cycles: 8380815 heartbeat IPC: 3.60008 cumulative IPC: 3.5796 (Simulation time: 0 hr 1 min 39 sec) 
*** Reached end of trace for Core: 0 Repeating trace: traces/spec2k17/srv_56.champsimtrace.xz
Heartbeat CPU 0 instructions: 40000001 cycles: 11165783 heartbeat IPC: 3.59071 cumulative IPC: 3.58237 (Simulation time: 0 hr 2 min 12 sec) 
Heartbeat CPU 0 instructions: 50000002 cycles: 13993703 heartbeat IPC: 3.53617 cumulative IPC: 3.57304 (Simulation time: 0 hr 2 min 44 sec) 

Warmup complete CPU 0 instructions: 50000002 cycles: 13993703 (Simulation time: 0 hr 2 min 44 sec) 

Heartbeat CPU 0 instructions: 60000000 cycles: 30788346 heartbeat IPC: 0.595428 cumulative IPC: 0.595428 (Simulation time: 0 hr 3 min 19 sec) 
*** Reached end of trace for Core: 0 Repeating trace: traces/spec2k17/srv_56.champsimtrace.xz
Heartbeat CPU 0 instructions: 70000003 cycles: 47802095 heartbeat IPC: 0.58776 cumulative IPC: 0.591569 (Simulation time: 0 hr 3 min 59 sec) 
Heartbeat CPU 0 instructions: 80000002 cycles: 63715854 heartbeat IPC: 0.628387 cumulative IPC: 0.603353 (Simulation time: 0 hr 4 min 40 sec) 
Heartbeat CPU 0 instructions: 90000000 cycles: 80575732 heartbeat IPC: 0.593124 cumulative IPC: 0.600763 (Simulation time: 0 hr 5 min 22 sec) 
*** Reached end of trace for Core: 0 Repeating trace: traces/spec2k17/srv_56.champsimtrace.xz
Heartbeat CPU 0 instructions: 100000000 cycles: 97466605 heartbeat IPC: 0.592036 cumulative IPC: 0.598997 (Simulation time: 0 hr 6 min 5 sec) 
Heartbeat CPU 0 instructions: 110000000 cycles: 113134924 heartbeat IPC: 0.638231 cumulative IPC: 0.605197 (Simulation time: 0 hr 7 min 19 sec) 
Heartbeat CPU 0 instructions: 120000003 cycles: 130275078 heartbeat IPC: 0.583426 cumulative IPC: 0.601988 (Simulation time: 0 hr 8 min 8 sec) 
*** Reached end of trace for Core: 0 Repeating trace: traces/spec2k17/srv_56.champsimtrace.xz
Heartbeat CPU 0 instructions: 130000002 cycles: 147090799 heartbeat IPC: 0.594682 cumulative IPC: 0.601065 (Simulation time: 0 hr 9 min 19 sec) 
Heartbeat CPU 0 instructions: 140000001 cycles: 163007274 heartbeat IPC: 0.62828 cumulative IPC: 0.603972 (Simulation time: 0 hr 10 min 19 sec) 
Heartbeat CPU 0 instructions: 150000002 cycles: 179900916 heartbeat IPC: 0.591939 cumulative IPC: 0.602747 (Simulation time: 0 hr 11 min 38 sec) 
*** Reached end of trace for Core: 0 Repeating trace: traces/spec2k17/srv_56.champsimtrace.xz
Heartbeat CPU 0 instructions: 160000002 cycles: 196644497 heartbeat IPC: 0.597244 cumulative IPC: 0.602242 (Simulation time: 0 hr 12 min 28 sec) 
Heartbeat CPU 0 instructions: 170000000 cycles: 212846260 heartbeat IPC: 0.617217 cumulative IPC: 0.603462 (Simulation time: 0 hr 13 min 33 sec) 
Heartbeat CPU 0 instructions: 180000001 cycles: 229401263 heartbeat IPC: 0.604047 cumulative IPC: 0.603507 (Simulation time: 0 hr 14 min 44 sec) 
*** Reached end of trace for Core: 0 Repeating trace: traces/spec2k17/srv_56.champsimtrace.xz
Heartbeat CPU 0 instructions: 190000002 cycles: 246226906 heartbeat IPC: 0.594331 cumulative IPC: 0.602842 (Simulation time: 0 hr 15 min 33 sec) 
Heartbeat CPU 0 instructions: 200000001 cycles: 262677625 heartbeat IPC: 0.607876 cumulative IPC: 0.603175 (Simulation time: 0 hr 16 min 41 sec) 
Heartbeat CPU 0 instructions: 210000000 cycles: 278953426 heartbeat IPC: 0.614409 cumulative IPC: 0.603865 (Simulation time: 0 hr 17 min 36 sec) 
*** Reached end of trace for Core: 0 Repeating trace: traces/spec2k17/srv_56.champsimtrace.xz
Heartbeat CPU 0 instructions: 220000000 cycles: 295693873 heartbeat IPC: 0.597356 cumulative IPC: 0.603478 (Simulation time: 0 hr 18 min 52 sec) 
Heartbeat CPU 0 instructions: 230000000 cycles: 312488153 heartbeat IPC: 0.595441 cumulative IPC: 0.603026 (Simulation time: 0 hr 19 min 44 sec) 
Heartbeat CPU 0 instructions: 240000001 cycles: 328482795 heartbeat IPC: 0.625209 cumulative IPC: 0.604154 (Simulation time: 0 hr 20 min 58 sec) 
*** Reached end of trace for Core: 0 Repeating trace: traces/spec2k17/srv_56.champsimtrace.xz
Heartbeat CPU 0 instructions: 250000002 cycles: 345168374 heartbeat IPC: 0.59932 cumulative IPC: 0.603911 (Simulation time: 0 hr 21 min 45 sec) 
Finished CPU 0 instructions: 200000000 cycles: 331174671 cumulative IPC: 0.603911 (Simulation time: 0 hr 21 min 45 sec) 

ChampSim completed all CPUs

Region of Interest Statistics

CPU 0 cumulative IPC: 0.603911 instructions: 200000000 cycles: 331174671
ITLB TOTAL     ACCESS:   34932690  HIT:   34115148  MISS:     817542  HIT %:    97.6597  MISS %:    2.34034   MPKI: 4.08771
ITLB LOAD TRANSLATION ACCESS:   34932690  HIT:   34115148  MISS:     817542  HIT %:    97.6597  MISS %:    2.34034   MPKI: 4.08771
ITLB PREFETCH  REQUESTED:          0  ISSUED:          0  USEFUL:          0  USELESS:          0
ITLB USEFUL LOAD PREFETCHES:          0 PREFETCH ISSUED TO LOWER LEVEL:          0  ACCURACY: -nan
ITLB TIMELY PREFETCHES:          0 LATE PREFETCHES: 0 DROPPED PREFETCHES: 0
ITLB PREFETCHES SAME FILL-ORIGIN LEVEL: 0 DIFFERENT FILL-ORIGIN LEVEL: 0
ITLB AVERAGE MISS LATENCY: 9.31616 cycles
ITLB RQ	ACCESS:   39789142	FORWARD:          0	MERGED:    4572997	TO_CACHE:   35216145

DTLB TOTAL     ACCESS:   40092190  HIT:   39192342  MISS:     899848  HIT %:    97.7556  MISS %:    2.24445   MPKI: 4.49924
DTLB LOAD TRANSLATION ACCESS:   40092190  HIT:   39192342  MISS:     899848  HIT %:    97.7556  MISS %:    2.24445   MPKI: 4.49924
DTLB PREFETCH  REQUESTED:          0  ISSUED:          0  USEFUL:          0  USELESS:          0
DTLB USEFUL LOAD PREFETCHES:          0 PREFETCH ISSUED TO LOWER LEVEL:          0  ACCURACY: -nan
DTLB TIMELY PREFETCHES:          0 LATE PREFETCHES: 0 DROPPED PREFETCHES: 0
DTLB PREFETCHES SAME FILL-ORIGIN LEVEL: 0 DIFFERENT FILL-ORIGIN LEVEL: 0
DTLB AVERAGE MISS LATENCY: 13.4616 cycles
DTLB RQ	ACCESS:   54926224	FORWARD:          0	MERGED:   14784858	TO_CACHE:   40141366

STLB TOTAL     ACCESS:    7234411  HIT:    7181319  MISS:      53092  HIT %:    99.2661  MISS %:   0.733881   MPKI: 0.26546
STLB LOAD TRANSLATION ACCESS:    1717390  HIT:    1664544  MISS:      52846  HIT %:    96.9229  MISS %:    3.07711   MPKI: 0.26423
STLB TRANSLATION FROM L1D PREFETCHER ACCESS:    5517021  HIT:    5516775  MISS:        246  HIT %:    99.9955  MISS %: 0.00445893   MPKI: 0.00123
STLB PREFETCH  REQUESTED:          0  ISSUED:          0  USEFUL:        231  USELESS:         15
STLB USEFUL LOAD PREFETCHES:        231 PREFETCH ISSUED TO LOWER LEVEL:          0  ACCURACY: inf
STLB TIMELY PREFETCHES:        231 LATE PREFETCHES: 0 DROPPED PREFETCHES: 5768
STLB PREFETCHES SAME FILL-ORIGIN LEVEL: 0 DIFFERENT FILL-ORIGIN LEVEL: 0
STLB AVERAGE MISS LATENCY: 84.1309 cycles
STLB RQ	ACCESS:    8619787	FORWARD:          0	MERGED:    1379601	TO_CACHE:    7240186

STLB Hit, L1D data hit: 0
STLB Hit, L2C data hit: 0
STLB Hit, LLC data hit: 0
STLB Hit, LLC data miss: 0
STLB STLB hints to L2: 0
L1D TOTAL     ACCESS:   61277046  HIT:   59972009  MISS:    1305037  HIT %:    97.8703  MISS %:    2.12973   MPKI: 6.52518
L1D LOAD      ACCESS:   33238842  HIT:   32294322  MISS:     944520  HIT %:    97.1584  MISS %:    2.84162   MPKI: 4.7226
L1D RFO       ACCESS:   21161865  HIT:   20811961  MISS:     349904  HIT %:    98.3465  MISS %:    1.65346   MPKI: 1.74952
L1D PREFETCH  ACCESS:    6876339  HIT:    6865726  MISS:      10613  HIT %:    99.8457  MISS %:   0.154341   MPKI: 0.053065
AGUS PREFETCH L1 MISS: 0
L1D PREFETCH  REQUESTED:   14217201  ISSUED:   14217106  USEFUL:       5645  USELESS:       4956
L1D USEFUL LOAD PREFETCHES:       5645 PREFETCH ISSUED TO LOWER LEVEL:      21360  ACCURACY: 26.4279
L1D TIMELY PREFETCHES:       5645 LATE PREFETCHES: 10746 DROPPED PREFETCHES: 5946
L1D PREFETCHES SAME FILL-ORIGIN LEVEL: 21360 DIFFERENT FILL-ORIGIN LEVEL: 0
L1D AVERAGE MISS LATENCY: 2.05644e+06 cycles
L1D RQ	ACCESS:   47518084	FORWARD:          0	MERGED:   13959566	TO_CACHE:   33284754
L1D WQ	ACCESS:   21914197	FORWARD:     291490	MERGED:     272727	TO_CACHE:   21641470
L1D PQ	ACCESS:    7314709	FORWARD:          0	MERGED:     394586	TO_CACHE:    6902397

L1D UNIQUE REGIONS ACCESSED: 0
L1D REGIONS CONFLICTS: 0
L1D Cross Page Prefetch Requests: 5624218
L1D Same Page Prefetch Requests: 1726515
L1D ROI Sum of L1D PQ occupancy: 96034651
L1D PREFETCHES PUSHED FROM L2C: 0
L1I TOTAL     ACCESS:   39321636  HIT:   36681875  MISS:    2639761  HIT %:    93.2867  MISS %:    6.71325   MPKI: 13.1988
L1I LOAD      ACCESS:   39321636  HIT:   36681875  MISS:    2639761  HIT %:    93.2867  MISS %:    6.71325   MPKI: 13.1988
L1I PREFETCH  REQUESTED:          0  ISSUED:          0  USEFUL:          0  USELESS:          0
L1I USEFUL LOAD PREFETCHES:          0 PREFETCH ISSUED TO LOWER LEVEL:          0  ACCURACY: -nan
L1I TIMELY PREFETCHES:          0 LATE PREFETCHES: 0 DROPPED PREFETCHES: 0
L1I PREFETCHES SAME FILL-ORIGIN LEVEL: 0 DIFFERENT FILL-ORIGIN LEVEL: 0
L1I AVERAGE MISS LATENCY: 17.3314 cycles
L1I RQ	ACCESS:   62194661	FORWARD:          0	MERGED:   22405519	TO_CACHE:   39789142

BTB TOTAL     ACCESS:   32613613  HIT:   28976968  MISS:    3636645  HIT %:    88.8493  MISS %:    11.1507   MPKI: 18.1832
BTB BRANCH_DIRECT_JUMP	ACCESS:    3424496  HIT:    3239376  MISS:     185120
BTB BRANCH_INDIRECT	ACCESS:   12879305  HIT:   11560314  MISS:    1318991
BTB BRANCH_CONDITIONAL	ACCESS:    8936157  HIT:    8698809  MISS:     237348
BTB BRANCH_DIRECT_CALL	ACCESS:    2777775  HIT:    2446309  MISS:     331466
BTB BRANCH_INDIRECT_CALL	ACCESS:     909063  HIT:     766967  MISS:     142096
BTB BRANCH_RETURN	ACCESS:    3686817  HIT:    2265193  MISS:    1421624
BTB BRANCH_OTHER ACCESS:          0  HIT:          0  MISS:          0

L2C TOTAL     ACCESS:    4621552  HIT:    3970676  MISS:     650876  HIT %:    85.9165  MISS %:    14.0835   MPKI: 3.25438
L2C LOAD      ACCESS:    3573526  HIT:    3055379  MISS:     518147  HIT %:    85.5004  MISS %:    14.4996   MPKI: 2.59074
L2C DATA LOAD MPKI: 1.19899
L2C INSTRUCTION LOAD MPKI: 1.39175
L2C RFO       ACCESS:     349903  HIT:     271334  MISS:      78569  HIT %:    77.5455  MISS %:    22.4545   MPKI: 0.392845
L2C PREFETCH  ACCESS:      21358  HIT:      18522  MISS:       2836  HIT %:    86.7216  MISS %:    13.2784   MPKI: 0.01418
AGUS PREFETCH L1 MISS: 0
L2C DATA PREFETCH MPKI: 0.01418
L2C INSTRUCTION PREFETCH MPKI: 0
L2C WRITEBACK ACCESS:     571366  HIT:     558203  MISS:      13163  HIT %:    97.6962  MISS %:    2.30378   MPKI: 0.065815
L2C LOAD TRANSLATION ACCESS:      97839  HIT:      61091  MISS:      36748  HIT %:    62.4403  MISS %:    37.5597   MPKI: 0.18374
L2C TRANSLATION FROM L1D PREFETCHER ACCESS:       7560  HIT:       6147  MISS:       1413  HIT %:    81.3095  MISS %:    18.6905   MPKI: 0.007065
L2C PREFETCH  REQUESTED:          0  ISSUED:          0  USEFUL:       1201  USELESS:       3015
L2C USEFUL LOAD PREFETCHES:       1201 PREFETCH ISSUED TO LOWER LEVEL:       2836  ACCURACY: 42.3484
L2C TIMELY PREFETCHES:       1201 LATE PREFETCHES: 0 DROPPED PREFETCHES: 0
L2C PREFETCHES SAME FILL-ORIGIN LEVEL: 0 DIFFERENT FILL-ORIGIN LEVEL: 0
L2C AVERAGE MISS LATENCY: 47.2794 cycles
L2C RQ	ACCESS:    4028837	FORWARD:          0	MERGED:          0	TO_CACHE:    4028828
L2C WQ	ACCESS:     571366	FORWARD:         11	MERGED:          0	TO_CACHE:     571366
L2C PQ	ACCESS:      21360	FORWARD:          0	MERGED:          0	TO_CACHE:      21358

L2C Instructions Evicting Data 113679
L2C Translations Evicting Data 25636
L2C Data Evicting Data 188746
L2C Instructions Evicting Instructions 155683
L2C Translations Evicting Instructions 8075
L2C Data Evicting Instructions 108398
L2C Instructions Evicting Translations 8987
L2C Translations Evicting Translations 4450
L2C Data Evicting Translations 24059
L2C Dense regions hint from L2: 0
PSCL5 TOTAL     ACCESS:      58771  HIT:      58771  MISS:          0  HIT %:        100  MISS %:          0   MPKI: 0
PSCL5 LOAD TRANSLATION ACCESS:      52846  HIT:      52846  MISS:          0  HIT %:        100  MISS %:          0   MPKI: 0
PSCL5 TRANSLATION FROM L1D PREFETCHER ACCESS:       5925  HIT:       5925  MISS:          0  HIT %:        100  MISS %:          0   MPKI: 0
PSCL5 PREFETCH  REQUESTED:          0  ISSUED:          0  USEFUL:          0  USELESS:          0
PSCL5 USEFUL LOAD PREFETCHES:          0 PREFETCH ISSUED TO LOWER LEVEL:          0  ACCURACY: -nan
PSCL5 TIMELY PREFETCHES:          0 LATE PREFETCHES: 0 DROPPED PREFETCHES: 0
PSCL5 PREFETCHES SAME FILL-ORIGIN LEVEL: 0 DIFFERENT FILL-ORIGIN LEVEL: 0

PSCL4 TOTAL     ACCESS:      57501  HIT:      57370  MISS:        131  HIT %:    99.7722  MISS %:   0.227822   MPKI: 0.000655
PSCL4 LOAD TRANSLATION ACCESS:      52410  HIT:      52279  MISS:        131  HIT %:      99.75  MISS %:   0.249952   MPKI: 0.000655
PSCL4 TRANSLATION FROM L1D PREFETCHER ACCESS:       5091  HIT:       5091  MISS:          0  HIT %:        100  MISS %:          0   MPKI: 0
PSCL4 PREFETCH  REQUESTED:          0  ISSUED:          0  USEFUL:          0  USELESS:          0
PSCL4 USEFUL LOAD PREFETCHES:          0 PREFETCH ISSUED TO LOWER LEVEL:          0  ACCURACY: -nan
PSCL4 TIMELY PREFETCHES:          0 LATE PREFETCHES: 0 DROPPED PREFETCHES: 0
PSCL4 PREFETCHES SAME FILL-ORIGIN LEVEL: 0 DIFFERENT FILL-ORIGIN LEVEL: 0

PSCL3 TOTAL     ACCESS:      54231  HIT:      40063  MISS:      14168  HIT %:    73.8747  MISS %:    26.1253   MPKI: 0.07084
PSCL3 LOAD TRANSLATION ACCESS:      51136  HIT:      36968  MISS:      14168  HIT %:    72.2935  MISS %:    27.7065   MPKI: 0.07084
PSCL3 TRANSLATION FROM L1D PREFETCHER ACCESS:       3095  HIT:       3095  MISS:          0  HIT %:        100  MISS %:          0   MPKI: 0
PSCL3 PREFETCH  REQUESTED:          0  ISSUED:          0  USEFUL:          0  USELESS:          0
PSCL3 USEFUL LOAD PREFETCHES:          0 PREFETCH ISSUED TO LOWER LEVEL:          0  ACCURACY: -nan
PSCL3 TIMELY PREFETCHES:          0 LATE PREFETCHES: 0 DROPPED PREFETCHES: 0
PSCL3 PREFETCHES SAME FILL-ORIGIN LEVEL: 0 DIFFERENT FILL-ORIGIN LEVEL: 0

PSCL2 TOTAL     ACCESS:      56158  HIT:      25434  MISS:      30724  HIT %:    45.2901  MISS %:    54.7099   MPKI: 0.15362
PSCL2 LOAD TRANSLATION ACCESS:      52864  HIT:      22140  MISS:      30724  HIT %:    41.8811  MISS %:    58.1189   MPKI: 0.15362
PSCL2 TRANSLATION FROM L1D PREFETCHER ACCESS:       3294  HIT:       3294  MISS:          0  HIT %:        100  MISS %:          0   MPKI: 0
PSCL2 PREFETCH  REQUESTED:          0  ISSUED:          0  USEFUL:          0  USELESS:          0
PSCL2 USEFUL LOAD PREFETCHES:          0 PREFETCH ISSUED TO LOWER LEVEL:          0  ACCURACY: -nan
PSCL2 TIMELY PREFETCHES:          0 LATE PREFETCHES: 0 DROPPED PREFETCHES: 0
PSCL2 PREFETCHES SAME FILL-ORIGIN LEVEL: 0 DIFFERENT FILL-ORIGIN LEVEL: 0

LLC TOTAL     ACCESS:     768717  HIT:     682866  MISS:      85851  HIT %:    88.8319  MISS %:    11.1681   MPKI: 0.429255
LLC LOAD      ACCESS:     518147  HIT:     448797  MISS:      69350  HIT %:    86.6158  MISS %:    13.3842   MPKI: 0.34675
LLC RFO       ACCESS:      78569  HIT:      71726  MISS:       6843  HIT %:    91.2905  MISS %:    8.70954   MPKI: 0.034215
LLC PREFETCH  ACCESS:       2836  HIT:       2552  MISS:        284  HIT %:    89.9859  MISS %:    10.0141   MPKI: 0.00142
AGUS PREFETCH L1 MISS: 0
LLC WRITEBACK ACCESS:     131004  HIT:     130809  MISS:        195  HIT %:    99.8511  MISS %:    0.14885   MPKI: 0.000975
LLC LOAD TRANSLATION ACCESS:      36748  HIT:      27704  MISS:       9044  HIT %:    75.3891  MISS %:    24.6109   MPKI: 0.04522
LLC TRANSLATION FROM L1D PREFETCHER ACCESS:       1413  HIT:       1278  MISS:        135  HIT %:    90.4459  MISS %:    9.55414   MPKI: 0.000675
LLC PREFETCH  REQUESTED:          0  ISSUED:          0  USEFUL:         70  USELESS:        235
LLC USEFUL LOAD PREFETCHES:         70 PREFETCH ISSUED TO LOWER LEVEL:        284  ACCURACY: 24.6479
LLC TIMELY PREFETCHES:         70 LATE PREFETCHES: 0 DROPPED PREFETCHES: 0
LLC PREFETCHES SAME FILL-ORIGIN LEVEL: 0 DIFFERENT FILL-ORIGIN LEVEL: 0
LLC AVERAGE MISS LATENCY: 135.601 cycles
LLC RQ	ACCESS:     634877	FORWARD:          0	MERGED:          0	TO_CACHE:     634877
LLC WQ	ACCESS:     131004	FORWARD:          0	MERGED:          0	TO_CACHE:     131004
LLC PQ	ACCESS:       2836	FORWARD:          0	MERGED:          0	TO_CACHE:       2836

LLC Dense regions hint to LLC: 0

RAW hits: 2470302
Loads Generated: 49988386
Loads sent to L1D: 47518084
Stores Generated: 21914186
Stores sent to L1D: 21914197
Major fault: 0 Minor fault: 6990
Allocated PAGES: 6990
Completed 
Accuracy : 91.1313
Number of unique groups: 1985598

DRAM Statistics
 CHANNEL 0
 RQ ROW_BUFFER_HIT:      30867  ROW_BUFFER_MISS:      54789
 DBUS_CONGESTED:         64
 WQ ROW_BUFFER_HIT:       2486  ROW_BUFFER_MISS:      15452  FULL:          0

 AVG_CONGESTED_CYCLE: 5
 All warmup complete: 2
Channel 0 Bank busy for read cycles: 0
Channel 0 Bank busy for write cycles: 0
Channel 0
Rank 0
0banks busy for read cycles: 321055926
0banks busy for write cycles: 13705
1banks busy for read cycles: 5980993
1banks busy for write cycles: 2111453
2banks busy for read cycles: 1279638
2banks busy for write cycles: 270318
3banks busy for read cycles: 186913
3banks busy for write cycles: 57315
4banks busy for read cycles: 71737
4banks busy for write cycles: 30789
5banks busy for read cycles: 36139
5banks busy for write cycles: 20287
6banks busy for read cycles: 15952
6banks busy for write cycles: 16028
7banks busy for read cycles: 8446
7banks busy for write cycles: 10036
8banks busy for read cycles: 4823
8banks busy for write cycles: 4174

CPU 0 Branch Prediction Accuracy: 99.8177% MPKI: 0.34573 Average ROB Occupancy at Mispredict: 34.4244
Branch types
NOT_BRANCH: 162062285 81.0311%
BRANCH_DIRECT_JUMP: 3424496 1.71225%
BRANCH_INDIRECT: 12879305 6.43965%
BRANCH_CONDITIONAL: 14259908 7.12995%
BRANCH_DIRECT_CALL: 2777775 1.38889%
BRANCH_INDIRECT_CALL: 909063 0.454531%
BRANCH_RETURN: 3686817 1.84341%
BRANCH_OTHER: 0 0%

DRAM PAGES: 1048576
Allocated PAGES: 6990
