
*** ChampSim Multicore Out-of-Order Simulator ***

Warmup Instructions: 50000000
Simulation Instructions: 200000000
Number of CPUs: 1
LLC sets: 2048
LLC ways: 16
Off-chip DRAM Size: 4096 MB Channels: 1 Width: 64-bit Data Rate: 6400 MT/s
CPU 0 runs traces/spec2k17/srv_35.champsimtrace.xz
.xz
BTB has LRU replacement policy
ITLB has LRU replacement policy
DTLB has LRU replacement policy
STLB has LRU replacement policy
L1I has LRU replacement policy
L1D has LRU replacement policy
Initialize SRRIP state for L2C
Initialize DRRIP state for LLC
Heartbeat CPU 0 instructions: 10000002 cycles: 2937094 heartbeat IPC: 3.40473 cumulative IPC: 3.40473 (Simulation time: 0 hr 0 min 45 sec) 
Heartbeat CPU 0 instructions: 20000000 cycles: 5877589 heartbeat IPC: 3.40079 cumulative IPC: 3.40276 (Simulation time: 0 hr 1 min 29 sec) 
Heartbeat CPU 0 instructions: 30000001 cycles: 8819947 heartbeat IPC: 3.39864 cumulative IPC: 3.40138 (Simulation time: 0 hr 2 min 15 sec) 
*** Reached end of trace for Core: 0 Repeating trace: traces/spec2k17/srv_35.champsimtrace.xz
Heartbeat CPU 0 instructions: 40000002 cycles: 11752813 heartbeat IPC: 3.40963 cumulative IPC: 3.40344 (Simulation time: 0 hr 3 min 1 sec) 
Heartbeat CPU 0 instructions: 50000000 cycles: 14692610 heartbeat IPC: 3.40159 cumulative IPC: 3.40307 (Simulation time: 0 hr 3 min 44 sec) 

Warmup complete CPU 0 instructions: 50000004 cycles: 14692611 (Simulation time: 0 hr 3 min 44 sec) 

Heartbeat CPU 0 instructions: 60000002 cycles: 35037019 heartbeat IPC: 0.491536 cumulative IPC: 0.491535 (Simulation time: 0 hr 5 min 4 sec) 
*** Reached end of trace for Core: 0 Repeating trace: traces/spec2k17/srv_35.champsimtrace.xz
Heartbeat CPU 0 instructions: 70000001 cycles: 54974050 heartbeat IPC: 0.501579 cumulative IPC: 0.496507 (Simulation time: 0 hr 6 min 25 sec) 
Heartbeat CPU 0 instructions: 80000002 cycles: 75141690 heartbeat IPC: 0.495844 cumulative IPC: 0.496285 (Simulation time: 0 hr 7 min 48 sec) 
Heartbeat CPU 0 instructions: 90000003 cycles: 95329566 heartbeat IPC: 0.495347 cumulative IPC: 0.49605 (Simulation time: 0 hr 9 min 12 sec) 
*** Reached end of trace for Core: 0 Repeating trace: traces/spec2k17/srv_35.champsimtrace.xz
Heartbeat CPU 0 instructions: 100000001 cycles: 115225862 heartbeat IPC: 0.502606 cumulative IPC: 0.497348 (Simulation time: 0 hr 10 min 38 sec) 
Heartbeat CPU 0 instructions: 110000000 cycles: 135413153 heartbeat IPC: 0.495361 cumulative IPC: 0.497016 (Simulation time: 0 hr 12 min 5 sec) 
Heartbeat CPU 0 instructions: 120000000 cycles: 155553874 heartbeat IPC: 0.496507 cumulative IPC: 0.496943 (Simulation time: 0 hr 13 min 37 sec) 
*** Reached end of trace for Core: 0 Repeating trace: traces/spec2k17/srv_35.champsimtrace.xz
Heartbeat CPU 0 instructions: 130000001 cycles: 175420331 heartbeat IPC: 0.503361 cumulative IPC: 0.497736 (Simulation time: 0 hr 15 min 13 sec) 
Heartbeat CPU 0 instructions: 140000000 cycles: 195579918 heartbeat IPC: 0.496042 cumulative IPC: 0.497547 (Simulation time: 0 hr 16 min 56 sec) 
Heartbeat CPU 0 instructions: 150000002 cycles: 215647746 heartbeat IPC: 0.49831 cumulative IPC: 0.497624 (Simulation time: 0 hr 18 min 44 sec) 
Heartbeat CPU 0 instructions: 160000001 cycles: 235616098 heartbeat IPC: 0.500792 cumulative IPC: 0.49791 (Simulation time: 0 hr 20 min 33 sec) 
*** Reached end of trace for Core: 0 Repeating trace: traces/spec2k17/srv_35.champsimtrace.xz
Heartbeat CPU 0 instructions: 170000000 cycles: 255477344 heartbeat IPC: 0.503493 cumulative IPC: 0.49837 (Simulation time: 0 hr 22 min 30 sec) 
Heartbeat CPU 0 instructions: 180000000 cycles: 275798382 heartbeat IPC: 0.492101 cumulative IPC: 0.497883 (Simulation time: 0 hr 24 min 33 sec) 
Heartbeat CPU 0 instructions: 190000003 cycles: 295756040 heartbeat IPC: 0.501061 cumulative IPC: 0.498108 (Simulation time: 0 hr 26 min 34 sec) 
*** Reached end of trace for Core: 0 Repeating trace: traces/spec2k17/srv_35.champsimtrace.xz
Heartbeat CPU 0 instructions: 200000003 cycles: 315605895 heartbeat IPC: 0.503782 cumulative IPC: 0.498482 (Simulation time: 0 hr 29 min 17 sec) 
Heartbeat CPU 0 instructions: 210000003 cycles: 335705252 heartbeat IPC: 0.497528 cumulative IPC: 0.498423 (Simulation time: 0 hr 32 min 6 sec) 
Heartbeat CPU 0 instructions: 220000000 cycles: 355782479 heartbeat IPC: 0.498077 cumulative IPC: 0.498402 (Simulation time: 0 hr 34 min 57 sec) 
*** Reached end of trace for Core: 0 Repeating trace: traces/spec2k17/srv_35.champsimtrace.xz
Heartbeat CPU 0 instructions: 230000000 cycles: 375662425 heartbeat IPC: 0.503019 cumulative IPC: 0.498657 (Simulation time: 0 hr 38 min 2 sec) 
Heartbeat CPU 0 instructions: 240000001 cycles: 395783458 heartbeat IPC: 0.496992 cumulative IPC: 0.498569 (Simulation time: 0 hr 40 min 40 sec) 
Heartbeat CPU 0 instructions: 250000001 cycles: 415938309 heartbeat IPC: 0.496158 cumulative IPC: 0.498448 (Simulation time: 0 hr 43 min 36 sec) 
Finished CPU 0 instructions: 200000001 cycles: 401245699 cumulative IPC: 0.498448 (Simulation time: 0 hr 43 min 36 sec) 

ChampSim completed all CPUs

Region of Interest Statistics

CPU 0 cumulative IPC: 0.498448 instructions: 200000001 cycles: 401245699
ITLB TOTAL     ACCESS:   33787958  HIT:   32249647  MISS:    1538311  HIT %:    95.4472  MISS %:    4.55284   MPKI: 7.69155
ITLB LOAD TRANSLATION ACCESS:   33787958  HIT:   32249647  MISS:    1538311  HIT %:    95.4472  MISS %:    4.55284   MPKI: 7.69155
ITLB PREFETCH  REQUESTED:          0  ISSUED:          0  USEFUL:          0  USELESS:          0
ITLB USEFUL LOAD PREFETCHES:          0 PREFETCH ISSUED TO LOWER LEVEL:          0  ACCURACY: -nan
ITLB TIMELY PREFETCHES:          0 LATE PREFETCHES: 0 DROPPED PREFETCHES: 0
ITLB PREFETCHES SAME FILL-ORIGIN LEVEL: 0 DIFFERENT FILL-ORIGIN LEVEL: 0
ITLB AVERAGE MISS LATENCY: 9.25037 cycles
ITLB RQ	ACCESS:   40662761	FORWARD:          0	MERGED:    6380256	TO_CACHE:   34282505

DTLB TOTAL     ACCESS:   39923506  HIT:   38392572  MISS:    1530934  HIT %:    96.1653  MISS %:    3.83467   MPKI: 7.65467
DTLB LOAD TRANSLATION ACCESS:   39923506  HIT:   38392572  MISS:    1530934  HIT %:    96.1653  MISS %:    3.83467   MPKI: 7.65467
DTLB PREFETCH  REQUESTED:          0  ISSUED:          0  USEFUL:          0  USELESS:          0
DTLB USEFUL LOAD PREFETCHES:          0 PREFETCH ISSUED TO LOWER LEVEL:          0  ACCURACY: -nan
DTLB TIMELY PREFETCHES:          0 LATE PREFETCHES: 0 DROPPED PREFETCHES: 0
DTLB PREFETCHES SAME FILL-ORIGIN LEVEL: 0 DIFFERENT FILL-ORIGIN LEVEL: 0
DTLB AVERAGE MISS LATENCY: 14.9177 cycles
DTLB RQ	ACCESS:   61042153	FORWARD:          0	MERGED:   20723108	TO_CACHE:   40319045

STLB TOTAL     ACCESS:    4678196  HIT:    4600019  MISS:      78177  HIT %:    98.3289  MISS %:    1.67109   MPKI: 0.390885
STLB LOAD TRANSLATION ACCESS:    3069245  HIT:    2991070  MISS:      78175  HIT %:     97.453  MISS %:    2.54704   MPKI: 0.390875
STLB TRANSLATION FROM L1D PREFETCHER ACCESS:    1608951  HIT:    1608949  MISS:          2  HIT %:    99.9999  MISS %: 0.000124305   MPKI: 1e-05
STLB PREFETCH  REQUESTED:          0  ISSUED:          0  USEFUL:          2  USELESS:          0
STLB USEFUL LOAD PREFETCHES:          2 PREFETCH ISSUED TO LOWER LEVEL:          0  ACCURACY: inf
STLB TIMELY PREFETCHES:          2 LATE PREFETCHES: 28 DROPPED PREFETCHES: 507
STLB PREFETCHES SAME FILL-ORIGIN LEVEL: 0 DIFFERENT FILL-ORIGIN LEVEL: 0
STLB AVERAGE MISS LATENCY: 122.266 cycles
STLB RQ	ACCESS:    5228843	FORWARD:          0	MERGED:     550107	TO_CACHE:    4678736

STLB Hit, L1D data hit: 0
STLB Hit, L2C data hit: 0
STLB Hit, LLC data hit: 0
STLB Hit, LLC data miss: 0
STLB STLB hints to L2: 0
L1D TOTAL     ACCESS:   51281806  HIT:   44520799  MISS:    6761007  HIT %:     86.816  MISS %:     13.184   MPKI: 33.805
L1D LOAD      ACCESS:   26633163  HIT:   23563781  MISS:    3069382  HIT %:    88.4753  MISS %:    11.5247   MPKI: 15.3469
L1D RFO       ACCESS:   22556061  HIT:   18874366  MISS:    3681695  HIT %:    83.6776  MISS %:    16.3224   MPKI: 18.4085
L1D PREFETCH  ACCESS:    2092582  HIT:    2082652  MISS:       9930  HIT %:    99.5255  MISS %:   0.474533   MPKI: 0.04965
AGUS PREFETCH L1 MISS: 0
L1D PREFETCH  REQUESTED:    4492206  ISSUED:    4492197  USEFUL:       8731  USELESS:       1198
L1D USEFUL LOAD PREFETCHES:       8731 PREFETCH ISSUED TO LOWER LEVEL:      24789  ACCURACY: 35.2213
L1D TIMELY PREFETCHES:       8731 LATE PREFETCHES: 14847 DROPPED PREFETCHES: 753
L1D PREFETCHES SAME FILL-ORIGIN LEVEL: 24789 DIFFERENT FILL-ORIGIN LEVEL: 0
L1D AVERAGE MISS LATENCY: 553852 cycles
L1D RQ	ACCESS:   45223980	FORWARD:          0	MERGED:   17834638	TO_CACHE:   27108350
L1D WQ	ACCESS:   34133601	FORWARD:     299877	MERGED:     199798	TO_CACHE:   33933803
L1D PQ	ACCESS:    2332599	FORWARD:          0	MERGED:     154116	TO_CACHE:    2159598

L1D UNIQUE REGIONS ACCESSED: 0
L1D REGIONS CONFLICTS: 0
L1D Cross Page Prefetch Requests: 1600738
L1D Same Page Prefetch Requests: 769889
L1D ROI Sum of L1D PQ occupancy: 29992365
L1D PREFETCHES PUSHED FROM L2C: 0
L1I TOTAL     ACCESS:   38007974  HIT:   28902514  MISS:    9105460  HIT %:    76.0433  MISS %:    23.9567   MPKI: 45.5273
L1I LOAD      ACCESS:   38007974  HIT:   28902514  MISS:    9105460  HIT %:    76.0433  MISS %:    23.9567   MPKI: 45.5273
L1I PREFETCH  REQUESTED:          0  ISSUED:          0  USEFUL:          0  USELESS:          0
L1I USEFUL LOAD PREFETCHES:          0 PREFETCH ISSUED TO LOWER LEVEL:          0  ACCURACY: -nan
L1I TIMELY PREFETCHES:          0 LATE PREFETCHES: 0 DROPPED PREFETCHES: 0
L1I PREFETCHES SAME FILL-ORIGIN LEVEL: 0 DIFFERENT FILL-ORIGIN LEVEL: 0
L1I AVERAGE MISS LATENCY: 16.8263 cycles
L1I RQ	ACCESS:   59014079	FORWARD:          0	MERGED:   18351318	TO_CACHE:   40662761

BTB TOTAL     ACCESS:   25730477  HIT:   24146041  MISS:    1584436  HIT %:    93.8422  MISS %:    6.15782   MPKI: 7.92218
BTB BRANCH_DIRECT_JUMP	ACCESS:    1658704  HIT:    1646125  MISS:      12579
BTB BRANCH_INDIRECT	ACCESS:    9991428  HIT:    9459134  MISS:     532294
BTB BRANCH_CONDITIONAL	ACCESS:    7236367  HIT:    7219065  MISS:      17302
BTB BRANCH_DIRECT_CALL	ACCESS:    2824054  HIT:    2784655  MISS:      39399
BTB BRANCH_INDIRECT_CALL	ACCESS:     597965  HIT:     486107  MISS:     111858
BTB BRANCH_RETURN	ACCESS:    3421959  HIT:    2550955  MISS:     871004
BTB BRANCH_OTHER ACCESS:          0  HIT:          0  MISS:          0

L2C TOTAL     ACCESS:   20288107  HIT:   13713444  MISS:    6574663  HIT %:    67.5935  MISS %:    32.4065   MPKI: 32.8733
L2C LOAD      ACCESS:   12159907  HIT:    9287889  MISS:    2872018  HIT %:    76.3813  MISS %:    23.6187   MPKI: 14.3601
L2C DATA LOAD MPKI: 11.5323
L2C INSTRUCTION LOAD MPKI: 2.82781
L2C RFO       ACCESS:    3681679  HIT:     174704  MISS:    3506975  HIT %:    4.74523  MISS %:    95.2548   MPKI: 17.5349
L2C PREFETCH  ACCESS:      24756  HIT:      19861  MISS:       4895  HIT %:     80.227  MISS %:     19.773   MPKI: 0.024475
AGUS PREFETCH L1 MISS: 0
L2C DATA PREFETCH MPKI: 0.024475
L2C INSTRUCTION PREFETCH MPKI: 0
L2C WRITEBACK ACCESS:    4330167  HIT:    4184424  MISS:     145743  HIT %:    96.6342  MISS %:    3.36576   MPKI: 0.728715
L2C LOAD TRANSLATION ACCESS:      90770  HIT:      46468  MISS:      44302  HIT %:    51.1931  MISS %:    48.8069   MPKI: 0.22151
L2C TRANSLATION FROM L1D PREFETCHER ACCESS:        828  HIT:         98  MISS:        730  HIT %:    11.8357  MISS %:    88.1643   MPKI: 0.00365
L2C PREFETCH  REQUESTED:          0  ISSUED:          0  USEFUL:        901  USELESS:       4717
L2C USEFUL LOAD PREFETCHES:        901 PREFETCH ISSUED TO LOWER LEVEL:       4895  ACCURACY: 18.4065
L2C TIMELY PREFETCHES:        901 LATE PREFETCHES: 0 DROPPED PREFETCHES: 0
L2C PREFETCHES SAME FILL-ORIGIN LEVEL: 0 DIFFERENT FILL-ORIGIN LEVEL: 0
L2C AVERAGE MISS LATENCY: 157.775 cycles
L2C RQ	ACCESS:   15933275	FORWARD:          0	MERGED:          0	TO_CACHE:   15933184
L2C WQ	ACCESS:    4330168	FORWARD:        124	MERGED:          0	TO_CACHE:    4330168
L2C PQ	ACCESS:      24789	FORWARD:          0	MERGED:          0	TO_CACHE:      24756

L2C Instructions Evicting Data 515810
L2C Translations Evicting Data 41206
L2C Data Evicting Data 5275343
L2C Instructions Evicting Instructions 45949
L2C Translations Evicting Instructions 3552
L2C Data Evicting Instructions 502758
L2C Instructions Evicting Translations 3804
L2C Translations Evicting Translations 274
L2C Data Evicting Translations 40224
L2C Dense regions hint from L2: 0
PSCL5 TOTAL     ACCESS:      78658  HIT:      78658  MISS:          0  HIT %:        100  MISS %:          0   MPKI: 0
PSCL5 LOAD TRANSLATION ACCESS:      78147  HIT:      78147  MISS:          0  HIT %:        100  MISS %:          0   MPKI: 0
PSCL5 TRANSLATION FROM L1D PREFETCHER ACCESS:        511  HIT:        511  MISS:          0  HIT %:        100  MISS %:          0   MPKI: 0
PSCL5 PREFETCH  REQUESTED:          0  ISSUED:          0  USEFUL:          0  USELESS:          0
PSCL5 USEFUL LOAD PREFETCHES:          0 PREFETCH ISSUED TO LOWER LEVEL:          0  ACCURACY: -nan
PSCL5 TIMELY PREFETCHES:          0 LATE PREFETCHES: 0 DROPPED PREFETCHES: 0
PSCL5 PREFETCHES SAME FILL-ORIGIN LEVEL: 0 DIFFERENT FILL-ORIGIN LEVEL: 0

PSCL4 TOTAL     ACCESS:      76679  HIT:      76520  MISS:        159  HIT %:    99.7926  MISS %:   0.207358   MPKI: 0.000795
PSCL4 LOAD TRANSLATION ACCESS:      76235  HIT:      76076  MISS:        159  HIT %:    99.7914  MISS %:   0.208566   MPKI: 0.000795
PSCL4 TRANSLATION FROM L1D PREFETCHER ACCESS:        444  HIT:        444  MISS:          0  HIT %:        100  MISS %:          0   MPKI: 0
PSCL4 PREFETCH  REQUESTED:          0  ISSUED:          0  USEFUL:          0  USELESS:          0
PSCL4 USEFUL LOAD PREFETCHES:          0 PREFETCH ISSUED TO LOWER LEVEL:          0  ACCURACY: -nan
PSCL4 TIMELY PREFETCHES:          0 LATE PREFETCHES: 0 DROPPED PREFETCHES: 0
PSCL4 PREFETCHES SAME FILL-ORIGIN LEVEL: 0 DIFFERENT FILL-ORIGIN LEVEL: 0

PSCL3 TOTAL     ACCESS:      70861  HIT:      69664  MISS:       1197  HIT %:    98.3108  MISS %:    1.68922   MPKI: 0.005985
PSCL3 LOAD TRANSLATION ACCESS:      70427  HIT:      69230  MISS:       1197  HIT %:    98.3004  MISS %:    1.69963   MPKI: 0.005985
PSCL3 TRANSLATION FROM L1D PREFETCHER ACCESS:        434  HIT:        434  MISS:          0  HIT %:        100  MISS %:          0   MPKI: 0
PSCL3 PREFETCH  REQUESTED:          0  ISSUED:          0  USEFUL:          0  USELESS:          0
PSCL3 USEFUL LOAD PREFETCHES:          0 PREFETCH ISSUED TO LOWER LEVEL:          0  ACCURACY: -nan
PSCL3 TIMELY PREFETCHES:          0 LATE PREFETCHES: 0 DROPPED PREFETCHES: 0
PSCL3 PREFETCHES SAME FILL-ORIGIN LEVEL: 0 DIFFERENT FILL-ORIGIN LEVEL: 0

PSCL2 TOTAL     ACCESS:      78231  HIT:      66939  MISS:      11292  HIT %:    85.5658  MISS %:    14.4342   MPKI: 0.05646
PSCL2 LOAD TRANSLATION ACCESS:      78172  HIT:      66880  MISS:      11292  HIT %:    85.5549  MISS %:    14.4451   MPKI: 0.05646
PSCL2 TRANSLATION FROM L1D PREFETCHER ACCESS:         59  HIT:         59  MISS:          0  HIT %:        100  MISS %:          0   MPKI: 0
PSCL2 PREFETCH  REQUESTED:          0  ISSUED:          0  USEFUL:          0  USELESS:          0
PSCL2 USEFUL LOAD PREFETCHES:          0 PREFETCH ISSUED TO LOWER LEVEL:          0  ACCURACY: -nan
PSCL2 TIMELY PREFETCHES:          0 LATE PREFETCHES: 0 DROPPED PREFETCHES: 0
PSCL2 PREFETCHES SAME FILL-ORIGIN LEVEL: 0 DIFFERENT FILL-ORIGIN LEVEL: 0

LLC TOTAL     ACCESS:   10428591  HIT:    4186721  MISS:    6241870  HIT %:    40.1466  MISS %:    59.8534   MPKI: 31.2093
LLC LOAD      ACCESS:    2872017  HIT:    1634371  MISS:    1237646  HIT %:    56.9067  MISS %:    43.0933   MPKI: 6.18823
LLC RFO       ACCESS:    3506959  HIT:     985065  MISS:    2521894  HIT %:    28.0889  MISS %:    71.9111   MPKI: 12.6095
LLC PREFETCH  ACCESS:       4895  HIT:       3635  MISS:       1260  HIT %:    74.2594  MISS %:    25.7406   MPKI: 0.0063
AGUS PREFETCH L1 MISS: 0
LLC WRITEBACK ACCESS:    3999688  HIT:    1549015  MISS:    2450673  HIT %:    38.7284  MISS %:    61.2716   MPKI: 12.2534
LLC LOAD TRANSLATION ACCESS:      44302  HIT:      14290  MISS:      30012  HIT %:    32.2559  MISS %:    67.7441   MPKI: 0.15006
LLC TRANSLATION FROM L1D PREFETCHER ACCESS:        730  HIT:        345  MISS:        385  HIT %:    47.2603  MISS %:    52.7397   MPKI: 0.001925
LLC PREFETCH  REQUESTED:          0  ISSUED:          0  USEFUL:         24  USELESS:       1620
LLC USEFUL LOAD PREFETCHES:         24 PREFETCH ISSUED TO LOWER LEVEL:       1260  ACCURACY: 1.90476
LLC TIMELY PREFETCHES:         24 LATE PREFETCHES: 0 DROPPED PREFETCHES: 0
LLC PREFETCHES SAME FILL-ORIGIN LEVEL: 0 DIFFERENT FILL-ORIGIN LEVEL: 0
LLC AVERAGE MISS LATENCY: 135.287 cycles
LLC RQ	ACCESS:    6424025	FORWARD:          0	MERGED:          0	TO_CACHE:    6424008
LLC WQ	ACCESS:    3999688	FORWARD:         17	MERGED:          0	TO_CACHE:    3999688
LLC PQ	ACCESS:       4895	FORWARD:          0	MERGED:          0	TO_CACHE:       4895

LLC Dense regions hint to LLC: 0

RAW hits: 2495538
Loads Generated: 47719518
Loads sent to L1D: 45223980
Stores Generated: 34133587
Stores sent to L1D: 34133601
Major fault: 0 Minor fault: 9063
Allocated PAGES: 9063
Completed 
Accuracy : 89.4372
Number of unique groups: 3350334

DRAM Statistics
 CHANNEL 0
 RQ ROW_BUFFER_HIT:    1770820  ROW_BUFFER_MISS:    2020082
 DBUS_CONGESTED:       1863
 WQ ROW_BUFFER_HIT:     578460  ROW_BUFFER_MISS:    2009737  FULL:      59502

 AVG_CONGESTED_CYCLE: 3
 All warmup complete: 2
Channel 0 Bank busy for read cycles: 0
Channel 0 Bank busy for write cycles: 0
Channel 0
Rank 0
0banks busy for read cycles: 180846650
0banks busy for write cycles: 259213
1banks busy for read cycles: 33629101
1banks busy for write cycles: 36980125
2banks busy for read cycles: 14417320
2banks busy for write cycles: 13183902
3banks busy for read cycles: 17215461
3banks busy for write cycles: 6025013
4banks busy for read cycles: 8894327
4banks busy for write cycles: 3983144
5banks busy for read cycles: 6031885
5banks busy for write cycles: 3441307
6banks busy for read cycles: 11158821
6banks busy for write cycles: 3481071
7banks busy for read cycles: 4717133
7banks busy for write cycles: 6061808
8banks busy for read cycles: 14756796
8banks busy for write cycles: 36162623

CPU 0 Branch Prediction Accuracy: 99.9446% MPKI: 0.08472 Average ROB Occupancy at Mispredict: 123.545
Branch types
NOT_BRANCH: 169425204 84.7126%
BRANCH_DIRECT_JUMP: 1658704 0.829352%
BRANCH_INDIRECT: 9991428 4.99571%
BRANCH_CONDITIONAL: 12080658 6.04033%
BRANCH_DIRECT_CALL: 2824054 1.41203%
BRANCH_INDIRECT_CALL: 597965 0.298982%
BRANCH_RETURN: 3421959 1.71098%
BRANCH_OTHER: 0 0%

DRAM PAGES: 1048576
Allocated PAGES: 9063
