
*** ChampSim Multicore Out-of-Order Simulator ***

Warmup Instructions: 50000000
Simulation Instructions: 200000000
Number of CPUs: 1
LLC sets: 2048
LLC ways: 16
Off-chip DRAM Size: 4096 MB Channels: 1 Width: 64-bit Data Rate: 6400 MT/s
CPU 0 runs traces/spec2k17/srv_17.champsimtrace.xz
.xz
BTB has LRU replacement policy
ITLB has LRU replacement policy
DTLB has LRU replacement policy
STLB has LRU replacement policy
L1I has LRU replacement policy
L1D has LRU replacement policy
Initialize SRRIP state for L2C
Initialize DRRIP state for LLC
Heartbeat CPU 0 instructions: 10000001 cycles: 2837297 heartbeat IPC: 3.52448 cumulative IPC: 3.52448 (Simulation time: 0 hr 0 min 51 sec) 
Heartbeat CPU 0 instructions: 20000001 cycles: 5670704 heartbeat IPC: 3.52932 cumulative IPC: 3.5269 (Simulation time: 0 hr 1 min 41 sec) 
Heartbeat CPU 0 instructions: 30000001 cycles: 8503725 heartbeat IPC: 3.5298 cumulative IPC: 3.52787 (Simulation time: 0 hr 2 min 32 sec) 
*** Reached end of trace for Core: 0 Repeating trace: traces/spec2k17/srv_17.champsimtrace.xz
Heartbeat CPU 0 instructions: 40000000 cycles: 11333059 heartbeat IPC: 3.5344 cumulative IPC: 3.5295 (Simulation time: 0 hr 3 min 20 sec) 
Heartbeat CPU 0 instructions: 50000003 cycles: 14162476 heartbeat IPC: 3.5343 cumulative IPC: 3.53046 (Simulation time: 0 hr 4 min 3 sec) 

Warmup complete CPU 0 instructions: 50000003 cycles: 14162476 (Simulation time: 0 hr 4 min 3 sec) 

Heartbeat CPU 0 instructions: 60000001 cycles: 47532988 heartbeat IPC: 0.299666 cumulative IPC: 0.299666 (Simulation time: 0 hr 5 min 2 sec) 
*** Reached end of trace for Core: 0 Repeating trace: traces/spec2k17/srv_17.champsimtrace.xz
Heartbeat CPU 0 instructions: 70000000 cycles: 80831243 heartbeat IPC: 0.300316 cumulative IPC: 0.299991 (Simulation time: 0 hr 6 min 0 sec) 
Heartbeat CPU 0 instructions: 80000001 cycles: 114118595 heartbeat IPC: 0.300414 cumulative IPC: 0.300132 (Simulation time: 0 hr 7 min 5 sec) 
Heartbeat CPU 0 instructions: 90000000 cycles: 147406338 heartbeat IPC: 0.300411 cumulative IPC: 0.300201 (Simulation time: 0 hr 8 min 12 sec) 
*** Reached end of trace for Core: 0 Repeating trace: traces/spec2k17/srv_17.champsimtrace.xz
Heartbeat CPU 0 instructions: 100000000 cycles: 180625527 heartbeat IPC: 0.301031 cumulative IPC: 0.300367 (Simulation time: 0 hr 9 min 19 sec) 
Heartbeat CPU 0 instructions: 110000000 cycles: 213818402 heartbeat IPC: 0.301269 cumulative IPC: 0.300517 (Simulation time: 0 hr 10 min 22 sec) 
Heartbeat CPU 0 instructions: 120000002 cycles: 246988327 heartbeat IPC: 0.301478 cumulative IPC: 0.300654 (Simulation time: 0 hr 11 min 29 sec) 
*** Reached end of trace for Core: 0 Repeating trace: traces/spec2k17/srv_17.champsimtrace.xz
Heartbeat CPU 0 instructions: 130000003 cycles: 279990718 heartbeat IPC: 0.303008 cumulative IPC: 0.300946 (Simulation time: 0 hr 12 min 33 sec) 
Heartbeat CPU 0 instructions: 140000003 cycles: 312861675 heartbeat IPC: 0.30422 cumulative IPC: 0.301306 (Simulation time: 0 hr 13 min 38 sec) 
Heartbeat CPU 0 instructions: 150000001 cycles: 345693456 heartbeat IPC: 0.304583 cumulative IPC: 0.301631 (Simulation time: 0 hr 14 min 43 sec) 
*** Reached end of trace for Core: 0 Repeating trace: traces/spec2k17/srv_17.champsimtrace.xz
Heartbeat CPU 0 instructions: 160000001 cycles: 378528315 heartbeat IPC: 0.304554 cumulative IPC: 0.301894 (Simulation time: 0 hr 15 min 49 sec) 
Heartbeat CPU 0 instructions: 170000000 cycles: 411364586 heartbeat IPC: 0.304541 cumulative IPC: 0.302113 (Simulation time: 0 hr 16 min 54 sec) 
Heartbeat CPU 0 instructions: 180000002 cycles: 444187811 heartbeat IPC: 0.304662 cumulative IPC: 0.302308 (Simulation time: 0 hr 17 min 58 sec) 
*** Reached end of trace for Core: 0 Repeating trace: traces/spec2k17/srv_17.champsimtrace.xz
Heartbeat CPU 0 instructions: 190000000 cycles: 477012795 heartbeat IPC: 0.304646 cumulative IPC: 0.302474 (Simulation time: 0 hr 19 min 1 sec) 
Heartbeat CPU 0 instructions: 200000002 cycles: 509830411 heartbeat IPC: 0.304714 cumulative IPC: 0.302622 (Simulation time: 0 hr 20 min 4 sec) 
Heartbeat CPU 0 instructions: 210000001 cycles: 542642621 heartbeat IPC: 0.304765 cumulative IPC: 0.302755 (Simulation time: 0 hr 21 min 9 sec) 
*** Reached end of trace for Core: 0 Repeating trace: traces/spec2k17/srv_17.champsimtrace.xz
Heartbeat CPU 0 instructions: 220000000 cycles: 575455558 heartbeat IPC: 0.304758 cumulative IPC: 0.302872 (Simulation time: 0 hr 22 min 14 sec) 
Heartbeat CPU 0 instructions: 230000000 cycles: 608258699 heartbeat IPC: 0.304849 cumulative IPC: 0.302981 (Simulation time: 0 hr 23 min 19 sec) 
Heartbeat CPU 0 instructions: 240000002 cycles: 641059759 heartbeat IPC: 0.304868 cumulative IPC: 0.30308 (Simulation time: 0 hr 24 min 22 sec) 
Heartbeat CPU 0 instructions: 250000002 cycles: 673878569 heartbeat IPC: 0.304703 cumulative IPC: 0.303161 (Simulation time: 0 hr 25 min 30 sec) 
Finished CPU 0 instructions: 200000003 cycles: 659716094 cumulative IPC: 0.303161 (Simulation time: 0 hr 25 min 30 sec) 

ChampSim completed all CPUs

Region of Interest Statistics

CPU 0 cumulative IPC: 0.303161 instructions: 200000003 cycles: 659716094
ITLB TOTAL     ACCESS:   35364408  HIT:   32948254  MISS:    2416154  HIT %:    93.1678  MISS %:    6.83216   MPKI: 12.0808
ITLB LOAD TRANSLATION ACCESS:   35364408  HIT:   32948254  MISS:    2416154  HIT %:    93.1678  MISS %:    6.83216   MPKI: 12.0808
ITLB PREFETCH  REQUESTED:          0  ISSUED:          0  USEFUL:          0  USELESS:          0
ITLB USEFUL LOAD PREFETCHES:          0 PREFETCH ISSUED TO LOWER LEVEL:          0  ACCURACY: -nan
ITLB TIMELY PREFETCHES:          0 LATE PREFETCHES: 0 DROPPED PREFETCHES: 0
ITLB PREFETCHES SAME FILL-ORIGIN LEVEL: 0 DIFFERENT FILL-ORIGIN LEVEL: 0
ITLB AVERAGE MISS LATENCY: 9.01466 cycles
ITLB RQ	ACCESS:   41912753	FORWARD:          0	MERGED:    5990082	TO_CACHE:   35922671

DTLB TOTAL     ACCESS:   47308380  HIT:   45342419  MISS:    1965961  HIT %:    95.8444  MISS %:    4.15563   MPKI: 9.8298
DTLB LOAD TRANSLATION ACCESS:   47308380  HIT:   45342419  MISS:    1965961  HIT %:    95.8444  MISS %:    4.15563   MPKI: 9.8298
DTLB PREFETCH  REQUESTED:          0  ISSUED:          0  USEFUL:          0  USELESS:          0
DTLB USEFUL LOAD PREFETCHES:          0 PREFETCH ISSUED TO LOWER LEVEL:          0  ACCURACY: -nan
DTLB TIMELY PREFETCHES:          0 LATE PREFETCHES: 0 DROPPED PREFETCHES: 0
DTLB PREFETCHES SAME FILL-ORIGIN LEVEL: 0 DIFFERENT FILL-ORIGIN LEVEL: 0
DTLB AVERAGE MISS LATENCY: 8.61589 cycles
DTLB RQ	ACCESS:   62491547	FORWARD:          0	MERGED:   15134882	TO_CACHE:   47356665

STLB TOTAL     ACCESS:   12747309  HIT:   12745806  MISS:       1503  HIT %:    99.9882  MISS %:  0.0117907   MPKI: 0.007515
STLB LOAD TRANSLATION ACCESS:    4382115  HIT:    4380622  MISS:       1493  HIT %:    99.9659  MISS %:  0.0340703   MPKI: 0.007465
STLB TRANSLATION FROM L1D PREFETCHER ACCESS:    8365194  HIT:    8365184  MISS:         10  HIT %:    99.9999  MISS %: 0.000119543   MPKI: 5e-05
STLB PREFETCH  REQUESTED:          0  ISSUED:          0  USEFUL:          6  USELESS:          4
STLB USEFUL LOAD PREFETCHES:          6 PREFETCH ISSUED TO LOWER LEVEL:          0  ACCURACY: inf
STLB TIMELY PREFETCHES:          6 LATE PREFETCHES: 4 DROPPED PREFETCHES: 802
STLB PREFETCHES SAME FILL-ORIGIN LEVEL: 0 DIFFERENT FILL-ORIGIN LEVEL: 0
STLB AVERAGE MISS LATENCY: 29.3293 cycles
STLB RQ	ACCESS:   14756422	FORWARD:          0	MERGED:    2008307	TO_CACHE:   12748115

STLB Hit, L1D data hit: 0
STLB Hit, L2C data hit: 0
STLB Hit, LLC data hit: 0
STLB Hit, LLC data miss: 0
STLB STLB hints to L2: 0
L1D TOTAL     ACCESS:   70572565  HIT:   66179974  MISS:    4392591  HIT %:    93.7758  MISS %:    6.22422   MPKI: 21.963
L1D LOAD      ACCESS:   34567566  HIT:   32009153  MISS:    2558413  HIT %:    92.5988  MISS %:     7.4012   MPKI: 12.7921
L1D RFO       ACCESS:   26142157  HIT:   24983189  MISS:    1158968  HIT %:    95.5667  MISS %:    4.43333   MPKI: 5.79484
L1D PREFETCH  ACCESS:    9862842  HIT:    9187632  MISS:     675210  HIT %:     93.154  MISS %:      6.846   MPKI: 3.37605
AGUS PREFETCH L1 MISS: 0
L1D PREFETCH  REQUESTED:   21101689  ISSUED:   21101689  USEFUL:     668104  USELESS:       7105
L1D USEFUL LOAD PREFETCHES:     668104 PREFETCH ISSUED TO LOWER LEVEL:     928034  ACCURACY: 71.9913
L1D TIMELY PREFETCHES:     668104 LATE PREFETCHES: 249246 DROPPED PREFETCHES: 819
L1D PREFETCHES SAME FILL-ORIGIN LEVEL: 928034 DIFFERENT FILL-ORIGIN LEVEL: 0
L1D AVERAGE MISS LATENCY: 2.62255e+07 cycles
L1D RQ	ACCESS:   47154804	FORWARD:          0	MERGED:   12122241	TO_CACHE:   34680747
L1D WQ	ACCESS:   27961654	FORWARD:     367036	MERGED:     150854	TO_CACHE:   27810800
L1D PQ	ACCESS:   10727382	FORWARD:          0	MERGED:     337855	TO_CACHE:   10374307

L1D UNIQUE REGIONS ACCESSED: 0
L1D REGIONS CONFLICTS: 0
L1D Cross Page Prefetch Requests: 8367200
L1D Same Page Prefetch Requests: 2389018
L1D ROI Sum of L1D PQ occupancy: 143808551
L1D PREFETCHES PUSHED FROM L2C: 0
L1I TOTAL     ACCESS:   40151390  HIT:   28020321  MISS:   12131069  HIT %:    69.7867  MISS %:    30.2133   MPKI: 60.6553
L1I LOAD      ACCESS:   40151390  HIT:   28020321  MISS:   12131069  HIT %:    69.7867  MISS %:    30.2133   MPKI: 60.6553
L1I PREFETCH  REQUESTED:          0  ISSUED:          0  USEFUL:          0  USELESS:          0
L1I USEFUL LOAD PREFETCHES:          0 PREFETCH ISSUED TO LOWER LEVEL:          0  ACCURACY: -nan
L1I TIMELY PREFETCHES:          0 LATE PREFETCHES: 0 DROPPED PREFETCHES: 0
L1I PREFETCHES SAME FILL-ORIGIN LEVEL: 0 DIFFERENT FILL-ORIGIN LEVEL: 0
L1I AVERAGE MISS LATENCY: 15.2541 cycles
L1I RQ	ACCESS:   58860313	FORWARD:          0	MERGED:   16947560	TO_CACHE:   41912753

BTB TOTAL     ACCESS:   30221977  HIT:   16757514  MISS:   13464463  HIT %:    55.4481  MISS %:    44.5519   MPKI: 67.3223
BTB BRANCH_DIRECT_JUMP	ACCESS:    1952658  HIT:    1081780  MISS:     870878
BTB BRANCH_INDIRECT	ACCESS:   12737369  HIT:    7604707  MISS:    5132662
BTB BRANCH_CONDITIONAL	ACCESS:    5645918  HIT:    4273174  MISS:    1372744
BTB BRANCH_DIRECT_CALL	ACCESS:    4153386  HIT:    1949552  MISS:    2203834
BTB BRANCH_INDIRECT_CALL	ACCESS:     789643  HIT:     387843  MISS:     401800
BTB BRANCH_RETURN	ACCESS:    4943003  HIT:    1460458  MISS:    3482545
BTB BRANCH_OTHER ACCESS:          0  HIT:          0  MISS:          0

L2C TOTAL     ACCESS:   18798354  HIT:   18132103  MISS:     666251  HIT %:    96.4558  MISS %:     3.5442   MPKI: 3.33125
L2C LOAD      ACCESS:   14439707  HIT:   13820652  MISS:     619055  HIT %:    95.7128  MISS %:    4.28717   MPKI: 3.09527
L2C DATA LOAD MPKI: 0.710085
L2C INSTRUCTION LOAD MPKI: 2.38519
L2C RFO       ACCESS:    1155390  HIT:    1146143  MISS:       9247  HIT %:    99.1997  MISS %:   0.800336   MPKI: 0.046235
L2C PREFETCH  ACCESS:     928028  HIT:     903019  MISS:      25009  HIT %:    97.3051  MISS %:    2.69485   MPKI: 0.125045
AGUS PREFETCH L1 MISS: 0
L2C DATA PREFETCH MPKI: 0.125045
L2C INSTRUCTION PREFETCH MPKI: 0
L2C WRITEBACK ACCESS:    2272771  HIT:    2260570  MISS:      12201  HIT %:    99.4632  MISS %:   0.536834   MPKI: 0.061005
L2C LOAD TRANSLATION ACCESS:       1494  HIT:        995  MISS:        499  HIT %:    66.5997  MISS %:    33.4003   MPKI: 0.002495
L2C TRANSLATION FROM L1D PREFETCHER ACCESS:        964  HIT:        724  MISS:        240  HIT %:    75.1037  MISS %:    24.8963   MPKI: 0.0012
L2C PREFETCH  REQUESTED:          0  ISSUED:          0  USEFUL:       1080  USELESS:      24149
L2C USEFUL LOAD PREFETCHES:       1080 PREFETCH ISSUED TO LOWER LEVEL:      25009  ACCURACY: 4.31845
L2C TIMELY PREFETCHES:       1080 LATE PREFETCHES: 0 DROPPED PREFETCHES: 0
L2C PREFETCHES SAME FILL-ORIGIN LEVEL: 0 DIFFERENT FILL-ORIGIN LEVEL: 0
L2C AVERAGE MISS LATENCY: 29.6788 cycles
L2C RQ	ACCESS:   15598084	FORWARD:          0	MERGED:          0	TO_CACHE:   15597555
L2C WQ	ACCESS:    2272771	FORWARD:        535	MERGED:          0	TO_CACHE:    2272771
L2C PQ	ACCESS:     928034	FORWARD:          0	MERGED:          0	TO_CACHE:     928028

L2C Instructions Evicting Data 83096
L2C Translations Evicting Data 660
L2C Data Evicting Data 104178
L2C Instructions Evicting Instructions 393893
L2C Translations Evicting Instructions 54
L2C Data Evicting Instructions 71417
L2C Instructions Evicting Translations 49
L2C Translations Evicting Translations 25
L2C Data Evicting Translations 678
L2C Dense regions hint from L2: 0
PSCL5 TOTAL     ACCESS:       2305  HIT:       2305  MISS:          0  HIT %:        100  MISS %:          0   MPKI: 0
PSCL5 LOAD TRANSLATION ACCESS:       1489  HIT:       1489  MISS:          0  HIT %:        100  MISS %:          0   MPKI: 0
PSCL5 TRANSLATION FROM L1D PREFETCHER ACCESS:        816  HIT:        816  MISS:          0  HIT %:        100  MISS %:          0   MPKI: 0
PSCL5 PREFETCH  REQUESTED:          0  ISSUED:          0  USEFUL:          0  USELESS:          0
PSCL5 USEFUL LOAD PREFETCHES:          0 PREFETCH ISSUED TO LOWER LEVEL:          0  ACCURACY: -nan
PSCL5 TIMELY PREFETCHES:          0 LATE PREFETCHES: 0 DROPPED PREFETCHES: 0
PSCL5 PREFETCHES SAME FILL-ORIGIN LEVEL: 0 DIFFERENT FILL-ORIGIN LEVEL: 0

PSCL4 TOTAL     ACCESS:       2292  HIT:       2292  MISS:          0  HIT %:        100  MISS %:          0   MPKI: 0
PSCL4 LOAD TRANSLATION ACCESS:       1483  HIT:       1483  MISS:          0  HIT %:        100  MISS %:          0   MPKI: 0
PSCL4 TRANSLATION FROM L1D PREFETCHER ACCESS:        809  HIT:        809  MISS:          0  HIT %:        100  MISS %:          0   MPKI: 0
PSCL4 PREFETCH  REQUESTED:          0  ISSUED:          0  USEFUL:          0  USELESS:          0
PSCL4 USEFUL LOAD PREFETCHES:          0 PREFETCH ISSUED TO LOWER LEVEL:          0  ACCURACY: -nan
PSCL4 TIMELY PREFETCHES:          0 LATE PREFETCHES: 0 DROPPED PREFETCHES: 0
PSCL4 PREFETCHES SAME FILL-ORIGIN LEVEL: 0 DIFFERENT FILL-ORIGIN LEVEL: 0

PSCL3 TOTAL     ACCESS:       2290  HIT:       2290  MISS:          0  HIT %:        100  MISS %:          0   MPKI: 0
PSCL3 LOAD TRANSLATION ACCESS:       1483  HIT:       1483  MISS:          0  HIT %:        100  MISS %:          0   MPKI: 0
PSCL3 TRANSLATION FROM L1D PREFETCHER ACCESS:        807  HIT:        807  MISS:          0  HIT %:        100  MISS %:          0   MPKI: 0
PSCL3 PREFETCH  REQUESTED:          0  ISSUED:          0  USEFUL:          0  USELESS:          0
PSCL3 USEFUL LOAD PREFETCHES:          0 PREFETCH ISSUED TO LOWER LEVEL:          0  ACCURACY: -nan
PSCL3 TIMELY PREFETCHES:          0 LATE PREFETCHES: 0 DROPPED PREFETCHES: 0
PSCL3 PREFETCHES SAME FILL-ORIGIN LEVEL: 0 DIFFERENT FILL-ORIGIN LEVEL: 0

PSCL2 TOTAL     ACCESS:       2078  HIT:       2073  MISS:          5  HIT %:    99.7594  MISS %:   0.240616   MPKI: 2.5e-05
PSCL2 LOAD TRANSLATION ACCESS:       1489  HIT:       1484  MISS:          5  HIT %:    99.6642  MISS %:   0.335796   MPKI: 2.5e-05
PSCL2 TRANSLATION FROM L1D PREFETCHER ACCESS:        589  HIT:        589  MISS:          0  HIT %:        100  MISS %:          0   MPKI: 0
PSCL2 PREFETCH  REQUESTED:          0  ISSUED:          0  USEFUL:          0  USELESS:          0
PSCL2 USEFUL LOAD PREFETCHES:          0 PREFETCH ISSUED TO LOWER LEVEL:          0  ACCURACY: -nan
PSCL2 TIMELY PREFETCHES:          0 LATE PREFETCHES: 0 DROPPED PREFETCHES: 0
PSCL2 PREFETCHES SAME FILL-ORIGIN LEVEL: 0 DIFFERENT FILL-ORIGIN LEVEL: 0

LLC TOTAL     ACCESS:     674469  HIT:     673554  MISS:        915  HIT %:    99.8643  MISS %:   0.135662   MPKI: 0.004575
LLC LOAD      ACCESS:     619055  HIT:     618259  MISS:        796  HIT %:    99.8714  MISS %:   0.128583   MPKI: 0.00398
LLC RFO       ACCESS:       9247  HIT:       9247  MISS:          0  HIT %:        100  MISS %:          0   MPKI: 0
LLC PREFETCH  ACCESS:      25009  HIT:      24943  MISS:         66  HIT %:    99.7361  MISS %:   0.263905   MPKI: 0.00033
AGUS PREFETCH L1 MISS: 0
LLC WRITEBACK ACCESS:      20419  HIT:      20419  MISS:          0  HIT %:        100  MISS %:          0   MPKI: 0
LLC LOAD TRANSLATION ACCESS:        499  HIT:        497  MISS:          2  HIT %:    99.5992  MISS %:   0.400802   MPKI: 1e-05
LLC TRANSLATION FROM L1D PREFETCHER ACCESS:        240  HIT:        189  MISS:         51  HIT %:      78.75  MISS %:      21.25   MPKI: 0.000255
LLC PREFETCH  REQUESTED:          0  ISSUED:          0  USEFUL:         20  USELESS:          2
LLC USEFUL LOAD PREFETCHES:         20 PREFETCH ISSUED TO LOWER LEVEL:         66  ACCURACY: 30.303
LLC TIMELY PREFETCHES:         20 LATE PREFETCHES: 0 DROPPED PREFETCHES: 0
LLC PREFETCHES SAME FILL-ORIGIN LEVEL: 0 DIFFERENT FILL-ORIGIN LEVEL: 0
LLC AVERAGE MISS LATENCY: 166.12 cycles
LLC RQ	ACCESS:     629041	FORWARD:          0	MERGED:          0	TO_CACHE:     629041
LLC WQ	ACCESS:      20419	FORWARD:          0	MERGED:          0	TO_CACHE:      20419
LLC PQ	ACCESS:      25009	FORWARD:          0	MERGED:          0	TO_CACHE:      25009

LLC Dense regions hint to LLC: 0

RAW hits: 1508223
Loads Generated: 48663027
Loads sent to L1D: 47154804
Stores Generated: 27961638
Stores sent to L1D: 27961654
Major fault: 0 Minor fault: 1253
Allocated PAGES: 1253
Completed 
Accuracy : 96.2042
Number of unique groups: 850016

DRAM Statistics
 CHANNEL 0
 RQ ROW_BUFFER_HIT:         40  ROW_BUFFER_MISS:        875
 DBUS_CONGESTED:          0
 WQ ROW_BUFFER_HIT:          0  ROW_BUFFER_MISS:          0  FULL:          0

 AVG_CONGESTED_CYCLE: -
 All warmup complete: 2
Channel 0 Bank busy for read cycles: 0
Channel 0 Bank busy for write cycles: 0
Channel 0
Rank 0
0banks busy for read cycles: 659595292
0banks busy for write cycles: 0
1banks busy for read cycles: 108816
1banks busy for write cycles: 0
2banks busy for read cycles: 11527
2banks busy for write cycles: 0
3banks busy for read cycles: 460
3banks busy for write cycles: 0
4banks busy for read cycles: 0
4banks busy for write cycles: 0
5banks busy for read cycles: 0
5banks busy for write cycles: 0
6banks busy for read cycles: 0
6banks busy for write cycles: 0
7banks busy for read cycles: 0
7banks busy for write cycles: 0
8banks busy for read cycles: 0
8banks busy for write cycles: 0

CPU 0 Branch Prediction Accuracy: 99.9103% MPKI: 0.159245 Average ROB Occupancy at Mispredict: 31.5822
Branch types
NOT_BRANCH: 164491853 82.2459%
BRANCH_DIRECT_JUMP: 1952658 0.976329%
BRANCH_INDIRECT: 12737369 6.36868%
BRANCH_CONDITIONAL: 10931946 5.46597%
BRANCH_DIRECT_CALL: 4153386 2.07669%
BRANCH_INDIRECT_CALL: 789643 0.394821%
BRANCH_RETURN: 4943003 2.4715%
BRANCH_OTHER: 0 0%

DRAM PAGES: 1048576
Allocated PAGES: 1253
