
*** ChampSim Multicore Out-of-Order Simulator ***

Warmup Instructions: 50000000
Simulation Instructions: 200000000
Number of CPUs: 1
LLC sets: 2048
LLC ways: 16
Off-chip DRAM Size: 4096 MB Channels: 1 Width: 64-bit Data Rate: 6400 MT/s
CPU 0 runs traces/spec2k17/srv_23.champsimtrace.xz
.xz
BTB has LRU replacement policy
ITLB has LRU replacement policy
DTLB has LRU replacement policy
STLB has LRU replacement policy
L1I has LRU replacement policy
L1D has LRU replacement policy
Initialize SRRIP state for L2C
Initialize DRRIP state for LLC
Heartbeat CPU 0 instructions: 10000002 cycles: 2849730 heartbeat IPC: 3.5091 cumulative IPC: 3.5091 (Simulation time: 0 hr 0 min 40 sec) 
Heartbeat CPU 0 instructions: 20000003 cycles: 5692023 heartbeat IPC: 3.51829 cumulative IPC: 3.51369 (Simulation time: 0 hr 1 min 17 sec) 
Heartbeat CPU 0 instructions: 30000003 cycles: 8532489 heartbeat IPC: 3.52055 cumulative IPC: 3.51597 (Simulation time: 0 hr 1 min 53 sec) 
*** Reached end of trace for Core: 0 Repeating trace: traces/spec2k17/srv_23.champsimtrace.xz
Heartbeat CPU 0 instructions: 40000002 cycles: 11374641 heartbeat IPC: 3.51846 cumulative IPC: 3.51659 (Simulation time: 0 hr 2 min 33 sec) 
Heartbeat CPU 0 instructions: 50000003 cycles: 14215839 heartbeat IPC: 3.51964 cumulative IPC: 3.5172 (Simulation time: 0 hr 3 min 10 sec) 

Warmup complete CPU 0 instructions: 50000003 cycles: 14215839 (Simulation time: 0 hr 3 min 10 sec) 

Heartbeat CPU 0 instructions: 60000000 cycles: 46648924 heartbeat IPC: 0.308327 cumulative IPC: 0.308327 (Simulation time: 0 hr 4 min 4 sec) 
*** Reached end of trace for Core: 0 Repeating trace: traces/spec2k17/srv_23.champsimtrace.xz
Heartbeat CPU 0 instructions: 70000000 cycles: 79112014 heartbeat IPC: 0.308042 cumulative IPC: 0.308185 (Simulation time: 0 hr 5 min 3 sec) 
Heartbeat CPU 0 instructions: 80000001 cycles: 111498616 heartbeat IPC: 0.30877 cumulative IPC: 0.308379 (Simulation time: 0 hr 5 min 59 sec) 
Heartbeat CPU 0 instructions: 90000002 cycles: 143918882 heartbeat IPC: 0.308449 cumulative IPC: 0.308397 (Simulation time: 0 hr 6 min 59 sec) 
*** Reached end of trace for Core: 0 Repeating trace: traces/spec2k17/srv_23.champsimtrace.xz
Heartbeat CPU 0 instructions: 100000000 cycles: 176304239 heartbeat IPC: 0.308781 cumulative IPC: 0.308474 (Simulation time: 0 hr 7 min 57 sec) 
Heartbeat CPU 0 instructions: 110000000 cycles: 208544428 heartbeat IPC: 0.310172 cumulative IPC: 0.308755 (Simulation time: 0 hr 8 min 58 sec) 
Heartbeat CPU 0 instructions: 120000001 cycles: 240894615 heartbeat IPC: 0.309117 cumulative IPC: 0.308807 (Simulation time: 0 hr 9 min 58 sec) 
*** Reached end of trace for Core: 0 Repeating trace: traces/spec2k17/srv_23.champsimtrace.xz
Heartbeat CPU 0 instructions: 130000000 cycles: 273190022 heartbeat IPC: 0.309642 cumulative IPC: 0.308911 (Simulation time: 0 hr 10 min 57 sec) 
Heartbeat CPU 0 instructions: 140000000 cycles: 305278018 heartbeat IPC: 0.311643 cumulative IPC: 0.309212 (Simulation time: 0 hr 12 min 0 sec) 
Heartbeat CPU 0 instructions: 150000003 cycles: 337398226 heartbeat IPC: 0.311331 cumulative IPC: 0.309423 (Simulation time: 0 hr 13 min 0 sec) 
*** Reached end of trace for Core: 0 Repeating trace: traces/spec2k17/srv_23.champsimtrace.xz
Heartbeat CPU 0 instructions: 160000002 cycles: 369353935 heartbeat IPC: 0.312933 cumulative IPC: 0.309739 (Simulation time: 0 hr 14 min 2 sec) 
Heartbeat CPU 0 instructions: 170000003 cycles: 401290538 heartbeat IPC: 0.31312 cumulative IPC: 0.310018 (Simulation time: 0 hr 15 min 4 sec) 
Heartbeat CPU 0 instructions: 180000001 cycles: 433364916 heartbeat IPC: 0.311775 cumulative IPC: 0.310152 (Simulation time: 0 hr 16 min 5 sec) 
*** Reached end of trace for Core: 0 Repeating trace: traces/spec2k17/srv_23.champsimtrace.xz
Heartbeat CPU 0 instructions: 190000001 cycles: 465315350 heartbeat IPC: 0.312985 cumulative IPC: 0.310353 (Simulation time: 0 hr 17 min 6 sec) 
Heartbeat CPU 0 instructions: 200000001 cycles: 497223529 heartbeat IPC: 0.313399 cumulative IPC: 0.310554 (Simulation time: 0 hr 18 min 8 sec) 
Heartbeat CPU 0 instructions: 210000001 cycles: 529275010 heartbeat IPC: 0.311998 cumulative IPC: 0.310644 (Simulation time: 0 hr 19 min 9 sec) 
*** Reached end of trace for Core: 0 Repeating trace: traces/spec2k17/srv_23.champsimtrace.xz
Heartbeat CPU 0 instructions: 220000000 cycles: 561185738 heartbeat IPC: 0.313374 cumulative IPC: 0.310803 (Simulation time: 0 hr 20 min 9 sec) 
Heartbeat CPU 0 instructions: 230000002 cycles: 593095176 heartbeat IPC: 0.313387 cumulative IPC: 0.310946 (Simulation time: 0 hr 21 min 11 sec) 
Heartbeat CPU 0 instructions: 240000001 cycles: 625124568 heartbeat IPC: 0.312213 cumulative IPC: 0.311012 (Simulation time: 0 hr 22 min 13 sec) 
Heartbeat CPU 0 instructions: 250000001 cycles: 657058618 heartbeat IPC: 0.313145 cumulative IPC: 0.311118 (Simulation time: 0 hr 23 min 16 sec) 
Finished CPU 0 instructions: 200000000 cycles: 642842780 cumulative IPC: 0.311118 (Simulation time: 0 hr 23 min 16 sec) 

ChampSim completed all CPUs

Region of Interest Statistics

CPU 0 cumulative IPC: 0.311118 instructions: 200000000 cycles: 642842780
ITLB TOTAL     ACCESS:   35723243  HIT:   33469403  MISS:    2253840  HIT %:    93.6908  MISS %:    6.30917   MPKI: 11.2692
ITLB LOAD TRANSLATION ACCESS:   35723243  HIT:   33469403  MISS:    2253840  HIT %:    93.6908  MISS %:    6.30917   MPKI: 11.2692
ITLB PREFETCH  REQUESTED:          0  ISSUED:          0  USEFUL:          0  USELESS:          0
ITLB USEFUL LOAD PREFETCHES:          0 PREFETCH ISSUED TO LOWER LEVEL:          0  ACCURACY: -nan
ITLB TIMELY PREFETCHES:          0 LATE PREFETCHES: 0 DROPPED PREFETCHES: 0
ITLB PREFETCHES SAME FILL-ORIGIN LEVEL: 0 DIFFERENT FILL-ORIGIN LEVEL: 0
ITLB AVERAGE MISS LATENCY: 9.15586 cycles
ITLB RQ	ACCESS:   41978904	FORWARD:          0	MERGED:    5719151	TO_CACHE:   36259753

DTLB TOTAL     ACCESS:   45805765  HIT:   43777538  MISS:    2028227  HIT %:    95.5721  MISS %:    4.42789   MPKI: 10.1411
DTLB LOAD TRANSLATION ACCESS:   45805765  HIT:   43777538  MISS:    2028227  HIT %:    95.5721  MISS %:    4.42789   MPKI: 10.1411
DTLB PREFETCH  REQUESTED:          0  ISSUED:          0  USEFUL:          0  USELESS:          0
DTLB USEFUL LOAD PREFETCHES:          0 PREFETCH ISSUED TO LOWER LEVEL:          0  ACCURACY: -nan
DTLB TIMELY PREFETCHES:          0 LATE PREFETCHES: 0 DROPPED PREFETCHES: 0
DTLB PREFETCHES SAME FILL-ORIGIN LEVEL: 0 DIFFERENT FILL-ORIGIN LEVEL: 0
DTLB AVERAGE MISS LATENCY: 8.9176 cycles
DTLB RQ	ACCESS:   60531453	FORWARD:          0	MERGED:   14667665	TO_CACHE:   45863788

STLB TOTAL     ACCESS:   10721583  HIT:   10693336  MISS:      28247  HIT %:    99.7365  MISS %:   0.263459   MPKI: 0.141235
STLB LOAD TRANSLATION ACCESS:    4282067  HIT:    4254856  MISS:      27211  HIT %:    99.3645  MISS %:   0.635464   MPKI: 0.136055
STLB TRANSLATION FROM L1D PREFETCHER ACCESS:    6439516  HIT:    6438480  MISS:       1036  HIT %:    99.9839  MISS %:  0.0160882   MPKI: 0.00518
STLB PREFETCH  REQUESTED:          0  ISSUED:          0  USEFUL:       1030  USELESS:          6
STLB USEFUL LOAD PREFETCHES:       1030 PREFETCH ISSUED TO LOWER LEVEL:          0  ACCURACY: inf
STLB TIMELY PREFETCHES:       1030 LATE PREFETCHES: 461 DROPPED PREFETCHES: 2639
STLB PREFETCHES SAME FILL-ORIGIN LEVEL: 0 DIFFERENT FILL-ORIGIN LEVEL: 0
STLB AVERAGE MISS LATENCY: 26.2418 cycles
STLB RQ	ACCESS:   12725447	FORWARD:          0	MERGED:    2000633	TO_CACHE:   10724814

STLB Hit, L1D data hit: 0
STLB Hit, L2C data hit: 0
STLB Hit, LLC data hit: 0
STLB Hit, LLC data miss: 0
STLB STLB hints to L2: 0
L1D TOTAL     ACCESS:   66257572  HIT:   60672732  MISS:    5584840  HIT %:     91.571  MISS %:    8.42898   MPKI: 27.9242
L1D LOAD      ACCESS:   33939002  HIT:   30442618  MISS:    3496384  HIT %:     89.698  MISS %:     10.302   MPKI: 17.4819
L1D RFO       ACCESS:   24699398  HIT:   23500112  MISS:    1199286  HIT %:    95.1445  MISS %:    4.85553   MPKI: 5.99643
L1D PREFETCH  ACCESS:    7619172  HIT:    6730002  MISS:     889170  HIT %:    88.3298  MISS %:    11.6702   MPKI: 4.44585
AGUS PREFETCH L1 MISS: 0
L1D PREFETCH  REQUESTED:   17144304  ISSUED:   17144274  USEFUL:     875506  USELESS:      13661
L1D USEFUL LOAD PREFETCHES:     875506 PREFETCH ISSUED TO LOWER LEVEL:    1439094  ACCURACY: 60.8373
L1D TIMELY PREFETCHES:     875506 LATE PREFETCHES: 547273 DROPPED PREFETCHES: 2711
L1D PREFETCHES SAME FILL-ORIGIN LEVEL: 1439094 DIFFERENT FILL-ORIGIN LEVEL: 0
L1D AVERAGE MISS LATENCY: 3.9185e+07 cycles
L1D RQ	ACCESS:   46440850	FORWARD:          0	MERGED:   12037855	TO_CACHE:   34073635
L1D WQ	ACCESS:   26602425	FORWARD:     339624	MERGED:     144607	TO_CACHE:   26457818
L1D PQ	ACCESS:    8700894	FORWARD:          0	MERGED:     247250	TO_CACHE:    8443380

L1D UNIQUE REGIONS ACCESSED: 0
L1D REGIONS CONFLICTS: 0
L1D Cross Page Prefetch Requests: 6178716
L1D Same Page Prefetch Requests: 2539554
L1D ROI Sum of L1D PQ occupancy: 116826788
L1D PREFETCHES PUSHED FROM L2C: 0
L1I TOTAL     ACCESS:   40285913  HIT:   28877095  MISS:   11408818  HIT %:    71.6804  MISS %:    28.3196   MPKI: 57.0441
L1I LOAD      ACCESS:   40285913  HIT:   28877095  MISS:   11408818  HIT %:    71.6804  MISS %:    28.3196   MPKI: 57.0441
L1I PREFETCH  REQUESTED:          0  ISSUED:          0  USEFUL:          0  USELESS:          0
L1I USEFUL LOAD PREFETCHES:          0 PREFETCH ISSUED TO LOWER LEVEL:          0  ACCURACY: -nan
L1I TIMELY PREFETCHES:          0 LATE PREFETCHES: 0 DROPPED PREFETCHES: 0
L1I PREFETCHES SAME FILL-ORIGIN LEVEL: 0 DIFFERENT FILL-ORIGIN LEVEL: 0
L1I AVERAGE MISS LATENCY: 15.6649 cycles
L1I RQ	ACCESS:   58336696	FORWARD:          0	MERGED:   16357792	TO_CACHE:   41978904

BTB TOTAL     ACCESS:   30404626  HIT:   17762651  MISS:   12641975  HIT %:    58.4209  MISS %:    41.5791   MPKI: 63.2099
BTB BRANCH_DIRECT_JUMP	ACCESS:    1877215  HIT:    1053364  MISS:     823851
BTB BRANCH_INDIRECT	ACCESS:   12063358  HIT:    7236921  MISS:    4826437
BTB BRANCH_CONDITIONAL	ACCESS:    7180679  HIT:    5895807  MISS:    1284872
BTB BRANCH_DIRECT_CALL	ACCESS:    3903287  HIT:    1841897  MISS:    2061390
BTB BRANCH_INDIRECT_CALL	ACCESS:     738410  HIT:     357792  MISS:     380618
BTB BRANCH_RETURN	ACCESS:    4641677  HIT:    1376870  MISS:    3264807
BTB BRANCH_OTHER ACCESS:          0  HIT:          0  MISS:          0

L2C TOTAL     ACCESS:   19358898  HIT:   18397693  MISS:     961205  HIT %:    95.0348  MISS %:    4.96518   MPKI: 4.80602
L2C LOAD      ACCESS:   14357923  HIT:   13534553  MISS:     823370  HIT %:    94.2654  MISS %:     5.7346   MPKI: 4.11685
L2C DATA LOAD MPKI: 1.09469
L2C INSTRUCTION LOAD MPKI: 3.02216
L2C RFO       ACCESS:    1196635  HIT:    1144850  MISS:      51785  HIT %:    95.6724  MISS %:    4.32755   MPKI: 0.258925
L2C PREFETCH  ACCESS:    1439093  HIT:    1383301  MISS:      55792  HIT %:    96.1231  MISS %:    3.87689   MPKI: 0.27896
AGUS PREFETCH L1 MISS: 0
L2C DATA PREFETCH MPKI: 0.27896
L2C INSTRUCTION PREFETCH MPKI: 0
L2C WRITEBACK ACCESS:    2332590  HIT:    2309083  MISS:      23507  HIT %:    98.9922  MISS %:    1.00776   MPKI: 0.117535
L2C LOAD TRANSLATION ACCESS:      27846  HIT:      21610  MISS:       6236  HIT %:    77.6054  MISS %:    22.3946   MPKI: 0.03118
L2C TRANSLATION FROM L1D PREFETCHER ACCESS:       4811  HIT:       4296  MISS:        515  HIT %:    89.2954  MISS %:    10.7046   MPKI: 0.002575
L2C PREFETCH  REQUESTED:          0  ISSUED:          0  USEFUL:       5217  USELESS:      51038
L2C USEFUL LOAD PREFETCHES:       5217 PREFETCH ISSUED TO LOWER LEVEL:      55792  ACCURACY: 9.3508
L2C TIMELY PREFETCHES:       5217 LATE PREFETCHES: 0 DROPPED PREFETCHES: 0
L2C PREFETCHES SAME FILL-ORIGIN LEVEL: 0 DIFFERENT FILL-ORIGIN LEVEL: 0
L2C AVERAGE MISS LATENCY: 29.5564 cycles
L2C RQ	ACCESS:   15587221	FORWARD:          0	MERGED:          0	TO_CACHE:   15587215
L2C WQ	ACCESS:    2332590	FORWARD:          7	MERGED:          0	TO_CACHE:    2332590
L2C PQ	ACCESS:    1439094	FORWARD:          0	MERGED:          0	TO_CACHE:    1439093

L2C Instructions Evicting Data 179497
L2C Translations Evicting Data 3710
L2C Data Evicting Data 157885
L2C Instructions Evicting Instructions 422080
L2C Translations Evicting Instructions 2932
L2C Data Evicting Instructions 164960
L2C Instructions Evicting Translations 2854
L2C Translations Evicting Translations 109
L2C Data Evicting Translations 3671
L2C Dense regions hint from L2: 0
PSCL5 TOTAL     ACCESS:      30884  HIT:      30884  MISS:          0  HIT %:        100  MISS %:          0   MPKI: 0
PSCL5 LOAD TRANSLATION ACCESS:      26750  HIT:      26750  MISS:          0  HIT %:        100  MISS %:          0   MPKI: 0
PSCL5 TRANSLATION FROM L1D PREFETCHER ACCESS:       4134  HIT:       4134  MISS:          0  HIT %:        100  MISS %:          0   MPKI: 0
PSCL5 PREFETCH  REQUESTED:          0  ISSUED:          0  USEFUL:          0  USELESS:          0
PSCL5 USEFUL LOAD PREFETCHES:          0 PREFETCH ISSUED TO LOWER LEVEL:          0  ACCURACY: -nan
PSCL5 TIMELY PREFETCHES:          0 LATE PREFETCHES: 0 DROPPED PREFETCHES: 0
PSCL5 PREFETCHES SAME FILL-ORIGIN LEVEL: 0 DIFFERENT FILL-ORIGIN LEVEL: 0

PSCL4 TOTAL     ACCESS:      28059  HIT:      27948  MISS:        111  HIT %:    99.6044  MISS %:   0.395595   MPKI: 0.000555
PSCL4 LOAD TRANSLATION ACCESS:      24450  HIT:      24339  MISS:        111  HIT %:     99.546  MISS %:   0.453988   MPKI: 0.000555
PSCL4 TRANSLATION FROM L1D PREFETCHER ACCESS:       3609  HIT:       3609  MISS:          0  HIT %:        100  MISS %:          0   MPKI: 0
PSCL4 PREFETCH  REQUESTED:          0  ISSUED:          0  USEFUL:          0  USELESS:          0
PSCL4 USEFUL LOAD PREFETCHES:          0 PREFETCH ISSUED TO LOWER LEVEL:          0  ACCURACY: -nan
PSCL4 TIMELY PREFETCHES:          0 LATE PREFETCHES: 0 DROPPED PREFETCHES: 0
PSCL4 PREFETCHES SAME FILL-ORIGIN LEVEL: 0 DIFFERENT FILL-ORIGIN LEVEL: 0

PSCL3 TOTAL     ACCESS:      29454  HIT:      29343  MISS:        111  HIT %:    99.6231  MISS %:   0.376859   MPKI: 0.000555
PSCL3 LOAD TRANSLATION ACCESS:      25546  HIT:      25435  MISS:        111  HIT %:    99.5655  MISS %:    0.43451   MPKI: 0.000555
PSCL3 TRANSLATION FROM L1D PREFETCHER ACCESS:       3908  HIT:       3908  MISS:          0  HIT %:        100  MISS %:          0   MPKI: 0
PSCL3 PREFETCH  REQUESTED:          0  ISSUED:          0  USEFUL:          0  USELESS:          0
PSCL3 USEFUL LOAD PREFETCHES:          0 PREFETCH ISSUED TO LOWER LEVEL:          0  ACCURACY: -nan
PSCL3 TIMELY PREFETCHES:          0 LATE PREFETCHES: 0 DROPPED PREFETCHES: 0
PSCL3 PREFETCHES SAME FILL-ORIGIN LEVEL: 0 DIFFERENT FILL-ORIGIN LEVEL: 0

PSCL2 TOTAL     ACCESS:      29546  HIT:      28618  MISS:        928  HIT %:    96.8591  MISS %:    3.14087   MPKI: 0.00464
PSCL2 LOAD TRANSLATION ACCESS:      26800  HIT:      25872  MISS:        928  HIT %:    96.5373  MISS %:    3.46269   MPKI: 0.00464
PSCL2 TRANSLATION FROM L1D PREFETCHER ACCESS:       2746  HIT:       2746  MISS:          0  HIT %:        100  MISS %:          0   MPKI: 0
PSCL2 PREFETCH  REQUESTED:          0  ISSUED:          0  USEFUL:          0  USELESS:          0
PSCL2 USEFUL LOAD PREFETCHES:          0 PREFETCH ISSUED TO LOWER LEVEL:          0  ACCURACY: -nan
PSCL2 TIMELY PREFETCHES:          0 LATE PREFETCHES: 0 DROPPED PREFETCHES: 0
PSCL2 PREFETCHES SAME FILL-ORIGIN LEVEL: 0 DIFFERENT FILL-ORIGIN LEVEL: 0

LLC TOTAL     ACCESS:    1015099  HIT:    1013309  MISS:       1790  HIT %:    99.8237  MISS %:   0.176337   MPKI: 0.00895
LLC LOAD      ACCESS:     823370  HIT:     821866  MISS:       1504  HIT %:    99.8173  MISS %:   0.182664   MPKI: 0.00752
LLC RFO       ACCESS:      51785  HIT:      51700  MISS:         85  HIT %:    99.8359  MISS %:    0.16414   MPKI: 0.000425
LLC PREFETCH  ACCESS:      55792  HIT:      55671  MISS:        121  HIT %:    99.7831  MISS %:   0.216877   MPKI: 0.000605
AGUS PREFETCH L1 MISS: 0
LLC WRITEBACK ACCESS:      77401  HIT:      77394  MISS:          7  HIT %:     99.991  MISS %: 0.00904381   MPKI: 3.5e-05
LLC LOAD TRANSLATION ACCESS:       6236  HIT:       6234  MISS:          2  HIT %:    99.9679  MISS %:  0.0320718   MPKI: 1e-05
LLC TRANSLATION FROM L1D PREFETCHER ACCESS:        515  HIT:        444  MISS:         71  HIT %:    86.2136  MISS %:    13.7864   MPKI: 0.000355
LLC PREFETCH  REQUESTED:          0  ISSUED:          0  USEFUL:         27  USELESS:         12
LLC USEFUL LOAD PREFETCHES:         27 PREFETCH ISSUED TO LOWER LEVEL:        121  ACCURACY: 22.314
LLC TIMELY PREFETCHES:         27 LATE PREFETCHES: 0 DROPPED PREFETCHES: 0
LLC PREFETCHES SAME FILL-ORIGIN LEVEL: 0 DIFFERENT FILL-ORIGIN LEVEL: 0
LLC AVERAGE MISS LATENCY: 155.773 cycles
LLC RQ	ACCESS:     881906	FORWARD:          0	MERGED:          0	TO_CACHE:     881906
LLC WQ	ACCESS:      77401	FORWARD:          0	MERGED:          0	TO_CACHE:      77401
LLC PQ	ACCESS:      55792	FORWARD:          0	MERGED:          0	TO_CACHE:      55792

LLC Dense regions hint to LLC: 0

RAW hits: 1447477
Loads Generated: 47888328
Loads sent to L1D: 46440850
Stores Generated: 26602422
Stores sent to L1D: 26602425
Major fault: 0 Minor fault: 1820
Allocated PAGES: 1820
Completed 
Accuracy : 94.4666
Number of unique groups: 1153472

DRAM Statistics
 CHANNEL 0
 RQ ROW_BUFFER_HIT:        255  ROW_BUFFER_MISS:       1528
 DBUS_CONGESTED:          0
 WQ ROW_BUFFER_HIT:          3  ROW_BUFFER_MISS:        105  FULL:          0

 AVG_CONGESTED_CYCLE: -
 All warmup complete: 2
Channel 0 Bank busy for read cycles: 0
Channel 0 Bank busy for write cycles: 0
Channel 0
Rank 0
0banks busy for read cycles: 642615978
0banks busy for write cycles: 98
1banks busy for read cycles: 187293
1banks busy for write cycles: 14651
2banks busy for read cycles: 17425
2banks busy for write cycles: 814
3banks busy for read cycles: 5169
3banks busy for write cycles: 278
4banks busy for read cycles: 1075
4banks busy for write cycles: 0
5banks busy for read cycles: 0
5banks busy for write cycles: 0
6banks busy for read cycles: 0
6banks busy for write cycles: 0
7banks busy for read cycles: 0
7banks busy for write cycles: 0
8banks busy for read cycles: 0
8banks busy for write cycles: 0

CPU 0 Branch Prediction Accuracy: 99.8875% MPKI: 0.202445 Average ROB Occupancy at Mispredict: 29.1842
Branch types
NOT_BRANCH: 164016253 82.0081%
BRANCH_DIRECT_JUMP: 1877215 0.938608%
BRANCH_INDIRECT: 12063358 6.03168%
BRANCH_CONDITIONAL: 12759769 6.37988%
BRANCH_DIRECT_CALL: 3903287 1.95164%
BRANCH_INDIRECT_CALL: 738410 0.369205%
BRANCH_RETURN: 4641677 2.32084%
BRANCH_OTHER: 0 0%

DRAM PAGES: 1048576
Allocated PAGES: 1820
