
*** ChampSim Multicore Out-of-Order Simulator ***

Warmup Instructions: 50000000
Simulation Instructions: 200000000
Number of CPUs: 1
LLC sets: 2048
LLC ways: 16
Off-chip DRAM Size: 4096 MB Channels: 1 Width: 64-bit Data Rate: 6400 MT/s
CPU 0 runs traces/spec2k17/srv_72.champsimtrace.xz
.xz
BTB has LRU replacement policy
ITLB has LRU replacement policy
DTLB has LRU replacement policy
STLB has LRU replacement policy
L1I has LRU replacement policy
L1D has LRU replacement policy
Initialize SRRIP state for L2C
Initialize DRRIP state for LLC
Heartbeat CPU 0 instructions: 10000002 cycles: 2830843 heartbeat IPC: 3.53252 cumulative IPC: 3.53252 (Simulation time: 0 hr 0 min 35 sec) 
Heartbeat CPU 0 instructions: 20000002 cycles: 5657765 heartbeat IPC: 3.53742 cumulative IPC: 3.53497 (Simulation time: 0 hr 1 min 8 sec) 
Heartbeat CPU 0 instructions: 30000002 cycles: 8485093 heartbeat IPC: 3.53691 cumulative IPC: 3.53561 (Simulation time: 0 hr 1 min 40 sec) 
*** Reached end of trace for Core: 0 Repeating trace: traces/spec2k17/srv_72.champsimtrace.xz
Heartbeat CPU 0 instructions: 40000003 cycles: 11307954 heartbeat IPC: 3.54251 cumulative IPC: 3.53733 (Simulation time: 0 hr 2 min 34 sec) 
Heartbeat CPU 0 instructions: 50000001 cycles: 14130874 heartbeat IPC: 3.54243 cumulative IPC: 3.53835 (Simulation time: 0 hr 3 min 7 sec) 

Warmup complete CPU 0 instructions: 50000001 cycles: 14130874 (Simulation time: 0 hr 3 min 7 sec) 

Heartbeat CPU 0 instructions: 60000001 cycles: 47398231 heartbeat IPC: 0.300595 cumulative IPC: 0.300595 (Simulation time: 0 hr 3 min 57 sec) 
*** Reached end of trace for Core: 0 Repeating trace: traces/spec2k17/srv_72.champsimtrace.xz
Heartbeat CPU 0 instructions: 70000001 cycles: 80547536 heartbeat IPC: 0.301665 cumulative IPC: 0.301129 (Simulation time: 0 hr 4 min 54 sec) 
Heartbeat CPU 0 instructions: 80000002 cycles: 113727711 heartbeat IPC: 0.301385 cumulative IPC: 0.301214 (Simulation time: 0 hr 5 min 47 sec) 
Heartbeat CPU 0 instructions: 90000002 cycles: 146910841 heartbeat IPC: 0.301358 cumulative IPC: 0.30125 (Simulation time: 0 hr 6 min 51 sec) 
*** Reached end of trace for Core: 0 Repeating trace: traces/spec2k17/srv_72.champsimtrace.xz
Heartbeat CPU 0 instructions: 100000002 cycles: 179968859 heartbeat IPC: 0.302498 cumulative IPC: 0.301499 (Simulation time: 0 hr 8 min 6 sec) 
Heartbeat CPU 0 instructions: 110000000 cycles: 213018778 heartbeat IPC: 0.302573 cumulative IPC: 0.301677 (Simulation time: 0 hr 9 min 5 sec) 
Heartbeat CPU 0 instructions: 120000000 cycles: 246083768 heartbeat IPC: 0.302435 cumulative IPC: 0.301785 (Simulation time: 0 hr 9 min 56 sec) 
*** Reached end of trace for Core: 0 Repeating trace: traces/spec2k17/srv_72.champsimtrace.xz
Heartbeat CPU 0 instructions: 130000000 cycles: 278967058 heartbeat IPC: 0.304106 cumulative IPC: 0.302074 (Simulation time: 0 hr 10 min 51 sec) 
Heartbeat CPU 0 instructions: 140000000 cycles: 311760408 heartbeat IPC: 0.30494 cumulative IPC: 0.302389 (Simulation time: 0 hr 11 min 43 sec) 
Heartbeat CPU 0 instructions: 150000000 cycles: 344557366 heartbeat IPC: 0.304906 cumulative IPC: 0.302639 (Simulation time: 0 hr 12 min 31 sec) 
*** Reached end of trace for Core: 0 Repeating trace: traces/spec2k17/srv_72.champsimtrace.xz
Heartbeat CPU 0 instructions: 160000000 cycles: 377287388 heartbeat IPC: 0.30553 cumulative IPC: 0.3029 (Simulation time: 0 hr 13 min 19 sec) 
Heartbeat CPU 0 instructions: 170000001 cycles: 409986169 heartbeat IPC: 0.305822 cumulative IPC: 0.303141 (Simulation time: 0 hr 14 min 2 sec) 
Heartbeat CPU 0 instructions: 180000000 cycles: 442708117 heartbeat IPC: 0.305605 cumulative IPC: 0.303329 (Simulation time: 0 hr 14 min 52 sec) 
*** Reached end of trace for Core: 0 Repeating trace: traces/spec2k17/srv_72.champsimtrace.xz
Heartbeat CPU 0 instructions: 190000001 cycles: 475398802 heartbeat IPC: 0.305898 cumulative IPC: 0.303511 (Simulation time: 0 hr 15 min 40 sec) 
Heartbeat CPU 0 instructions: 200000001 cycles: 508099874 heartbeat IPC: 0.3058 cumulative IPC: 0.303663 (Simulation time: 0 hr 16 min 29 sec) 
Heartbeat CPU 0 instructions: 210000000 cycles: 540819031 heartbeat IPC: 0.305631 cumulative IPC: 0.303785 (Simulation time: 0 hr 17 min 19 sec) 
*** Reached end of trace for Core: 0 Repeating trace: traces/spec2k17/srv_72.champsimtrace.xz
Heartbeat CPU 0 instructions: 220000000 cycles: 573494554 heartbeat IPC: 0.306039 cumulative IPC: 0.303917 (Simulation time: 0 hr 18 min 13 sec) 
Heartbeat CPU 0 instructions: 230000000 cycles: 606146237 heartbeat IPC: 0.306263 cumulative IPC: 0.304046 (Simulation time: 0 hr 18 min 58 sec) 
Heartbeat CPU 0 instructions: 240000000 cycles: 638817090 heartbeat IPC: 0.306083 cumulative IPC: 0.304153 (Simulation time: 0 hr 19 min 37 sec) 
Heartbeat CPU 0 instructions: 250000002 cycles: 671498656 heartbeat IPC: 0.305983 cumulative IPC: 0.304244 (Simulation time: 0 hr 20 min 15 sec) 
Finished CPU 0 instructions: 200000001 cycles: 657367782 cumulative IPC: 0.304244 (Simulation time: 0 hr 20 min 15 sec) 

ChampSim completed all CPUs

Region of Interest Statistics

CPU 0 cumulative IPC: 0.304244 instructions: 200000001 cycles: 657367782
ITLB TOTAL     ACCESS:   35328182  HIT:   32913448  MISS:    2414734  HIT %:    93.1649  MISS %:    6.83515   MPKI: 12.0737
ITLB LOAD TRANSLATION ACCESS:   35328182  HIT:   32913448  MISS:    2414734  HIT %:    93.1649  MISS %:    6.83515   MPKI: 12.0737
ITLB PREFETCH  REQUESTED:          0  ISSUED:          0  USEFUL:          0  USELESS:          0
ITLB USEFUL LOAD PREFETCHES:          0 PREFETCH ISSUED TO LOWER LEVEL:          0  ACCURACY: -nan
ITLB TIMELY PREFETCHES:          0 LATE PREFETCHES: 0 DROPPED PREFETCHES: 0
ITLB PREFETCHES SAME FILL-ORIGIN LEVEL: 0 DIFFERENT FILL-ORIGIN LEVEL: 0
ITLB AVERAGE MISS LATENCY: 9.01507 cycles
ITLB RQ	ACCESS:   41872515	FORWARD:          0	MERGED:    5986344	TO_CACHE:   35886171

DTLB TOTAL     ACCESS:   47254723  HIT:   45283890  MISS:    1970833  HIT %:    95.8293  MISS %:    4.17066   MPKI: 9.85416
DTLB LOAD TRANSLATION ACCESS:   47254723  HIT:   45283890  MISS:    1970833  HIT %:    95.8293  MISS %:    4.17066   MPKI: 9.85416
DTLB PREFETCH  REQUESTED:          0  ISSUED:          0  USEFUL:          0  USELESS:          0
DTLB USEFUL LOAD PREFETCHES:          0 PREFETCH ISSUED TO LOWER LEVEL:          0  ACCURACY: -nan
DTLB TIMELY PREFETCHES:          0 LATE PREFETCHES: 0 DROPPED PREFETCHES: 0
DTLB PREFETCHES SAME FILL-ORIGIN LEVEL: 0 DIFFERENT FILL-ORIGIN LEVEL: 0
DTLB AVERAGE MISS LATENCY: 8.63163 cycles
DTLB RQ	ACCESS:   62461143	FORWARD:          0	MERGED:   15158423	TO_CACHE:   47302720

STLB TOTAL     ACCESS:   12659522  HIT:   12658310  MISS:       1212  HIT %:    99.9904  MISS %: 0.00957382   MPKI: 0.00606
STLB LOAD TRANSLATION ACCESS:    4385567  HIT:    4384358  MISS:       1209  HIT %:    99.9724  MISS %:  0.0275677   MPKI: 0.006045
STLB TRANSLATION FROM L1D PREFETCHER ACCESS:    8273955  HIT:    8273952  MISS:          3  HIT %:        100  MISS %: 3.62584e-05   MPKI: 1.5e-05
STLB PREFETCH  REQUESTED:          0  ISSUED:          0  USEFUL:          0  USELESS:          3
STLB USEFUL LOAD PREFETCHES:          0 PREFETCH ISSUED TO LOWER LEVEL:          0  ACCURACY: -nan
STLB TIMELY PREFETCHES:          0 LATE PREFETCHES: 2 DROPPED PREFETCHES: 489
STLB PREFETCHES SAME FILL-ORIGIN LEVEL: 0 DIFFERENT FILL-ORIGIN LEVEL: 0
STLB AVERAGE MISS LATENCY: 30.3828 cycles
STLB RQ	ACCESS:   14647663	FORWARD:          0	MERGED:    1987650	TO_CACHE:   12660013

STLB Hit, L1D data hit: 0
STLB Hit, L2C data hit: 0
STLB Hit, LLC data hit: 0
STLB Hit, LLC data miss: 0
STLB STLB hints to L2: 0
L1D TOTAL     ACCESS:   70385087  HIT:   65997226  MISS:    4387861  HIT %:    93.7659  MISS %:    6.23408   MPKI: 21.9393
L1D LOAD      ACCESS:   34540848  HIT:   31970772  MISS:    2570076  HIT %:    92.5593  MISS %:    7.44069   MPKI: 12.8504
L1D RFO       ACCESS:   26085387  HIT:   24926105  MISS:    1159282  HIT %:    95.5558  MISS %:    4.44418   MPKI: 5.79641
L1D PREFETCH  ACCESS:    9758852  HIT:    9100349  MISS:     658503  HIT %:    93.2522  MISS %:    6.74775   MPKI: 3.29251
AGUS PREFETCH L1 MISS: 0
L1D PREFETCH  REQUESTED:   20884637  ISSUED:   20884637  USEFUL:     653899  USELESS:       4602
L1D USEFUL LOAD PREFETCHES:     653899 PREFETCH ISSUED TO LOWER LEVEL:     908028  ACCURACY: 72.0131
L1D TIMELY PREFETCHES:     653899 LATE PREFETCHES: 246593 DROPPED PREFETCHES: 513
L1D PREFETCHES SAME FILL-ORIGIN LEVEL: 908028 DIFFERENT FILL-ORIGIN LEVEL: 0
L1D AVERAGE MISS LATENCY: 2.58484e+07 cycles
L1D RQ	ACCESS:   47128097	FORWARD:          0	MERGED:   12122099	TO_CACHE:   34651846
L1D WQ	ACCESS:   27957224	FORWARD:     368628	MERGED:     147927	TO_CACHE:   27809297
L1D PQ	ACCESS:   10622541	FORWARD:          0	MERGED:     345969	TO_CACHE:   10262096

L1D UNIQUE REGIONS ACCESSED: 0
L1D REGIONS CONFLICTS: 0
L1D Cross Page Prefetch Requests: 8254817
L1D Same Page Prefetch Requests: 2401537
L1D ROI Sum of L1D PQ occupancy: 142208302
L1D PREFETCHES PUSHED FROM L2C: 0
L1I TOTAL     ACCESS:   40145176  HIT:   28020466  MISS:   12124710  HIT %:    69.7978  MISS %:    30.2022   MPKI: 60.6235
L1I LOAD      ACCESS:   40145176  HIT:   28020466  MISS:   12124710  HIT %:    69.7978  MISS %:    30.2022   MPKI: 60.6235
L1I PREFETCH  REQUESTED:          0  ISSUED:          0  USEFUL:          0  USELESS:          0
L1I USEFUL LOAD PREFETCHES:          0 PREFETCH ISSUED TO LOWER LEVEL:          0  ACCURACY: -nan
L1I TIMELY PREFETCHES:          0 LATE PREFETCHES: 0 DROPPED PREFETCHES: 0
L1I PREFETCHES SAME FILL-ORIGIN LEVEL: 0 DIFFERENT FILL-ORIGIN LEVEL: 0
L1I AVERAGE MISS LATENCY: 15.0187 cycles
L1I RQ	ACCESS:   58829935	FORWARD:          0	MERGED:   16957420	TO_CACHE:   41872515

BTB TOTAL     ACCESS:   30217395  HIT:   16754579  MISS:   13462816  HIT %:    55.4468  MISS %:    44.5532   MPKI: 67.3141
BTB BRANCH_DIRECT_JUMP	ACCESS:    1948775  HIT:    1081587  MISS:     867188
BTB BRANCH_INDIRECT	ACCESS:   12729317  HIT:    7598469  MISS:    5130848
BTB BRANCH_CONDITIONAL	ACCESS:    5646163  HIT:    4270714  MISS:    1375449
BTB BRANCH_DIRECT_CALL	ACCESS:    4157362  HIT:    1954239  MISS:    2203123
BTB BRANCH_INDIRECT_CALL	ACCESS:     789217  HIT:     387763  MISS:     401454
BTB BRANCH_RETURN	ACCESS:    4946561  HIT:    1461807  MISS:    3484754
BTB BRANCH_OTHER ACCESS:          0  HIT:          0  MISS:          0

L2C TOTAL     ACCESS:   18782988  HIT:   18148372  MISS:     634616  HIT %:    96.6213  MISS %:    3.37867   MPKI: 3.17308
L2C LOAD      ACCESS:   14447782  HIT:   13902151  MISS:     545631  HIT %:    96.2234  MISS %:    3.77657   MPKI: 2.72815
L2C DATA LOAD MPKI: 0.82044
L2C INSTRUCTION LOAD MPKI: 1.90771
L2C RFO       ACCESS:    1156350  HIT:    1115910  MISS:      40440  HIT %:    96.5028  MISS %:    3.49721   MPKI: 0.2022
L2C PREFETCH  ACCESS:     908023  HIT:     884771  MISS:      23252  HIT %:    97.4393  MISS %:    2.56073   MPKI: 0.11626
AGUS PREFETCH L1 MISS: 0
L2C DATA PREFETCH MPKI: 0.11626
L2C INSTRUCTION PREFETCH MPKI: 0
L2C WRITEBACK ACCESS:    2269040  HIT:    2244413  MISS:      24627  HIT %:    98.9147  MISS %:    1.08535   MPKI: 0.123135
L2C LOAD TRANSLATION ACCESS:       1212  HIT:        760  MISS:        452  HIT %:    62.7063  MISS %:    37.2937   MPKI: 0.00226
L2C TRANSLATION FROM L1D PREFETCHER ACCESS:        581  HIT:        367  MISS:        214  HIT %:     63.167  MISS %:     36.833   MPKI: 0.00107
L2C PREFETCH  REQUESTED:          0  ISSUED:          0  USEFUL:        793  USELESS:      22648
L2C USEFUL LOAD PREFETCHES:        793 PREFETCH ISSUED TO LOWER LEVEL:      23252  ACCURACY: 3.41046
L2C TIMELY PREFETCHES:        793 LATE PREFETCHES: 0 DROPPED PREFETCHES: 0
L2C PREFETCHES SAME FILL-ORIGIN LEVEL: 0 DIFFERENT FILL-ORIGIN LEVEL: 0
L2C AVERAGE MISS LATENCY: 29.0823 cycles
L2C RQ	ACCESS:   15606336	FORWARD:          0	MERGED:          0	TO_CACHE:   15605925
L2C WQ	ACCESS:    2269040	FORWARD:        416	MERGED:          0	TO_CACHE:    2269040
L2C PQ	ACCESS:     908028	FORWARD:          0	MERGED:          0	TO_CACHE:     908023

L2C Instructions Evicting Data 118559
L2C Translations Evicting Data 559
L2C Data Evicting Data 125342
L2C Instructions Evicting Instructions 262851
L2C Translations Evicting Instructions 86
L2C Data Evicting Instructions 101925
L2C Instructions Evicting Translations 133
L2C Translations Evicting Translations 20
L2C Data Evicting Translations 513
L2C Dense regions hint from L2: 0
PSCL5 TOTAL     ACCESS:       1701  HIT:       1701  MISS:          0  HIT %:        100  MISS %:          0   MPKI: 0
PSCL5 LOAD TRANSLATION ACCESS:       1207  HIT:       1207  MISS:          0  HIT %:        100  MISS %:          0   MPKI: 0
PSCL5 TRANSLATION FROM L1D PREFETCHER ACCESS:        494  HIT:        494  MISS:          0  HIT %:        100  MISS %:          0   MPKI: 0
PSCL5 PREFETCH  REQUESTED:          0  ISSUED:          0  USEFUL:          0  USELESS:          0
PSCL5 USEFUL LOAD PREFETCHES:          0 PREFETCH ISSUED TO LOWER LEVEL:          0  ACCURACY: -nan
PSCL5 TIMELY PREFETCHES:          0 LATE PREFETCHES: 0 DROPPED PREFETCHES: 0
PSCL5 PREFETCHES SAME FILL-ORIGIN LEVEL: 0 DIFFERENT FILL-ORIGIN LEVEL: 0

PSCL4 TOTAL     ACCESS:       1692  HIT:       1692  MISS:          0  HIT %:        100  MISS %:          0   MPKI: 0
PSCL4 LOAD TRANSLATION ACCESS:       1207  HIT:       1207  MISS:          0  HIT %:        100  MISS %:          0   MPKI: 0
PSCL4 TRANSLATION FROM L1D PREFETCHER ACCESS:        485  HIT:        485  MISS:          0  HIT %:        100  MISS %:          0   MPKI: 0
PSCL4 PREFETCH  REQUESTED:          0  ISSUED:          0  USEFUL:          0  USELESS:          0
PSCL4 USEFUL LOAD PREFETCHES:          0 PREFETCH ISSUED TO LOWER LEVEL:          0  ACCURACY: -nan
PSCL4 TIMELY PREFETCHES:          0 LATE PREFETCHES: 0 DROPPED PREFETCHES: 0
PSCL4 PREFETCHES SAME FILL-ORIGIN LEVEL: 0 DIFFERENT FILL-ORIGIN LEVEL: 0

PSCL3 TOTAL     ACCESS:       1689  HIT:       1689  MISS:          0  HIT %:        100  MISS %:          0   MPKI: 0
PSCL3 LOAD TRANSLATION ACCESS:       1207  HIT:       1207  MISS:          0  HIT %:        100  MISS %:          0   MPKI: 0
PSCL3 TRANSLATION FROM L1D PREFETCHER ACCESS:        482  HIT:        482  MISS:          0  HIT %:        100  MISS %:          0   MPKI: 0
PSCL3 PREFETCH  REQUESTED:          0  ISSUED:          0  USEFUL:          0  USELESS:          0
PSCL3 USEFUL LOAD PREFETCHES:          0 PREFETCH ISSUED TO LOWER LEVEL:          0  ACCURACY: -nan
PSCL3 TIMELY PREFETCHES:          0 LATE PREFETCHES: 0 DROPPED PREFETCHES: 0
PSCL3 PREFETCHES SAME FILL-ORIGIN LEVEL: 0 DIFFERENT FILL-ORIGIN LEVEL: 0

PSCL2 TOTAL     ACCESS:       1490  HIT:       1485  MISS:          5  HIT %:    99.6644  MISS %:    0.33557   MPKI: 2.5e-05
PSCL2 LOAD TRANSLATION ACCESS:       1207  HIT:       1202  MISS:          5  HIT %:    99.5857  MISS %:    0.41425   MPKI: 2.5e-05
PSCL2 TRANSLATION FROM L1D PREFETCHER ACCESS:        283  HIT:        283  MISS:          0  HIT %:        100  MISS %:          0   MPKI: 0
PSCL2 PREFETCH  REQUESTED:          0  ISSUED:          0  USEFUL:          0  USELESS:          0
PSCL2 USEFUL LOAD PREFETCHES:          0 PREFETCH ISSUED TO LOWER LEVEL:          0  ACCURACY: -nan
PSCL2 TIMELY PREFETCHES:          0 LATE PREFETCHES: 0 DROPPED PREFETCHES: 0
PSCL2 PREFETCHES SAME FILL-ORIGIN LEVEL: 0 DIFFERENT FILL-ORIGIN LEVEL: 0

LLC TOTAL     ACCESS:     661277  HIT:     660343  MISS:        934  HIT %:    99.8588  MISS %:   0.141242   MPKI: 0.00467
LLC LOAD      ACCESS:     545631  HIT:     544829  MISS:        802  HIT %:     99.853  MISS %:   0.146986   MPKI: 0.00401
LLC RFO       ACCESS:      40440  HIT:      40440  MISS:          0  HIT %:        100  MISS %:          0   MPKI: 0
LLC PREFETCH  ACCESS:      23252  HIT:      23182  MISS:         70  HIT %:     99.699  MISS %:   0.301049   MPKI: 0.00035
AGUS PREFETCH L1 MISS: 0
LLC WRITEBACK ACCESS:      51288  HIT:      51288  MISS:          0  HIT %:        100  MISS %:          0   MPKI: 0
LLC LOAD TRANSLATION ACCESS:        452  HIT:        451  MISS:          1  HIT %:    99.7788  MISS %:   0.221239   MPKI: 5e-06
LLC TRANSLATION FROM L1D PREFETCHER ACCESS:        214  HIT:        153  MISS:         61  HIT %:    71.4953  MISS %:    28.5047   MPKI: 0.000305
LLC PREFETCH  REQUESTED:          0  ISSUED:          0  USEFUL:         19  USELESS:          1
LLC USEFUL LOAD PREFETCHES:         19 PREFETCH ISSUED TO LOWER LEVEL:         70  ACCURACY: 27.1429
LLC TIMELY PREFETCHES:         19 LATE PREFETCHES: 0 DROPPED PREFETCHES: 0
LLC PREFETCHES SAME FILL-ORIGIN LEVEL: 0 DIFFERENT FILL-ORIGIN LEVEL: 0
LLC AVERAGE MISS LATENCY: 167.484 cycles
LLC RQ	ACCESS:     586737	FORWARD:          0	MERGED:          0	TO_CACHE:     586737
LLC WQ	ACCESS:      51288	FORWARD:          0	MERGED:          0	TO_CACHE:      51288
LLC PQ	ACCESS:      23252	FORWARD:          0	MERGED:          0	TO_CACHE:      23252

LLC Dense regions hint to LLC: 0

RAW hits: 1532212
Loads Generated: 48660309
Loads sent to L1D: 47128097
Stores Generated: 27957206
Stores sent to L1D: 27957224
Major fault: 0 Minor fault: 1236
Allocated PAGES: 1236
Completed 
Accuracy : 96.2414
Number of unique groups: 875925

DRAM Statistics
 CHANNEL 0
 RQ ROW_BUFFER_HIT:         28  ROW_BUFFER_MISS:        906
 DBUS_CONGESTED:          0
 WQ ROW_BUFFER_HIT:          0  ROW_BUFFER_MISS:          0  FULL:          0

 AVG_CONGESTED_CYCLE: -
 All warmup complete: 2
Channel 0 Bank busy for read cycles: 0
Channel 0 Bank busy for write cycles: 0
Channel 0
Rank 0
0banks busy for read cycles: 657241826
0banks busy for write cycles: 0
1banks busy for read cycles: 115101
1banks busy for write cycles: 0
2banks busy for read cycles: 10369
2banks busy for write cycles: 0
3banks busy for read cycles: 487
3banks busy for write cycles: 0
4banks busy for read cycles: 0
4banks busy for write cycles: 0
5banks busy for read cycles: 0
5banks busy for write cycles: 0
6banks busy for read cycles: 0
6banks busy for write cycles: 0
7banks busy for read cycles: 0
7banks busy for write cycles: 0
8banks busy for read cycles: 0
8banks busy for write cycles: 0

CPU 0 Branch Prediction Accuracy: 99.9104% MPKI: 0.15902 Average ROB Occupancy at Mispredict: 31.2375
Branch types
NOT_BRANCH: 164498173 82.2491%
BRANCH_DIRECT_JUMP: 1948775 0.974387%
BRANCH_INDIRECT: 12729317 6.36466%
BRANCH_CONDITIONAL: 10930530 5.46526%
BRANCH_DIRECT_CALL: 4157362 2.07868%
BRANCH_INDIRECT_CALL: 789217 0.394608%
BRANCH_RETURN: 4946561 2.47328%
BRANCH_OTHER: 0 0%

DRAM PAGES: 1048576
Allocated PAGES: 1236
