
*** ChampSim Multicore Out-of-Order Simulator ***

Warmup Instructions: 50000000
Simulation Instructions: 200000000
Number of CPUs: 1
LLC sets: 2048
LLC ways: 16
Off-chip DRAM Size: 4096 MB Channels: 1 Width: 64-bit Data Rate: 6400 MT/s
CPU 0 runs traces/spec2k17/srv_58.champsimtrace.xz
.xz
BTB has LRU replacement policy
ITLB has LRU replacement policy
DTLB has LRU replacement policy
STLB has LRU replacement policy
L1I has LRU replacement policy
L1D has LRU replacement policy
Initialize SRRIP state for L2C
Initialize DRRIP state for LLC
Heartbeat CPU 0 instructions: 10000001 cycles: 2794777 heartbeat IPC: 3.5781 cumulative IPC: 3.5781 (Simulation time: 0 hr 0 min 41 sec) 
Heartbeat CPU 0 instructions: 20000002 cycles: 5587982 heartbeat IPC: 3.58012 cumulative IPC: 3.57911 (Simulation time: 0 hr 1 min 29 sec) 
Heartbeat CPU 0 instructions: 30000003 cycles: 8609419 heartbeat IPC: 3.30968 cumulative IPC: 3.48456 (Simulation time: 0 hr 2 min 19 sec) 
*** Reached end of trace for Core: 0 Repeating trace: traces/spec2k17/srv_58.champsimtrace.xz
Heartbeat CPU 0 instructions: 40000003 cycles: 11427649 heartbeat IPC: 3.54833 cumulative IPC: 3.50028 (Simulation time: 0 hr 2 min 58 sec) 
Heartbeat CPU 0 instructions: 50000000 cycles: 14217423 heartbeat IPC: 3.58452 cumulative IPC: 3.51681 (Simulation time: 0 hr 3 min 35 sec) 

Warmup complete CPU 0 instructions: 50000004 cycles: 14217424 (Simulation time: 0 hr 3 min 35 sec) 

Heartbeat CPU 0 instructions: 60000000 cycles: 25393861 heartbeat IPC: 0.894739 cumulative IPC: 0.894739 (Simulation time: 0 hr 4 min 50 sec) 
*** Reached end of trace for Core: 0 Repeating trace: traces/spec2k17/srv_58.champsimtrace.xz
Heartbeat CPU 0 instructions: 70000000 cycles: 42550280 heartbeat IPC: 0.582872 cumulative IPC: 0.705894 (Simulation time: 0 hr 5 min 38 sec) 
Heartbeat CPU 0 instructions: 80000003 cycles: 61076051 heartbeat IPC: 0.539789 cumulative IPC: 0.640224 (Simulation time: 0 hr 6 min 43 sec) 
Heartbeat CPU 0 instructions: 90000001 cycles: 73314161 heartbeat IPC: 0.817119 cumulative IPC: 0.676856 (Simulation time: 0 hr 7 min 35 sec) 
*** Reached end of trace for Core: 0 Repeating trace: traces/spec2k17/srv_58.champsimtrace.xz
Heartbeat CPU 0 instructions: 100000002 cycles: 89294954 heartbeat IPC: 0.625751 cumulative IPC: 0.665978 (Simulation time: 0 hr 8 min 28 sec) 
Heartbeat CPU 0 instructions: 110000000 cycles: 108100549 heartbeat IPC: 0.531757 cumulative IPC: 0.639092 (Simulation time: 0 hr 9 min 55 sec) 
Heartbeat CPU 0 instructions: 120000001 cycles: 121101082 heartbeat IPC: 0.769199 cumulative IPC: 0.654918 (Simulation time: 0 hr 10 min 57 sec) 
*** Reached end of trace for Core: 0 Repeating trace: traces/spec2k17/srv_58.champsimtrace.xz
Heartbeat CPU 0 instructions: 130000000 cycles: 136201103 heartbeat IPC: 0.662251 cumulative IPC: 0.655825 (Simulation time: 0 hr 11 min 46 sec) 
Heartbeat CPU 0 instructions: 140000000 cycles: 154873300 heartbeat IPC: 0.535556 cumulative IPC: 0.639859 (Simulation time: 0 hr 12 min 24 sec) 
Heartbeat CPU 0 instructions: 150000003 cycles: 168849101 heartbeat IPC: 0.715523 cumulative IPC: 0.646698 (Simulation time: 0 hr 13 min 9 sec) 
*** Reached end of trace for Core: 0 Repeating trace: traces/spec2k17/srv_58.champsimtrace.xz
Heartbeat CPU 0 instructions: 160000000 cycles: 183038679 heartbeat IPC: 0.704742 cumulative IPC: 0.651577 (Simulation time: 0 hr 13 min 50 sec) 
Heartbeat CPU 0 instructions: 170000000 cycles: 201778187 heartbeat IPC: 0.533632 cumulative IPC: 0.639793 (Simulation time: 0 hr 14 min 31 sec) 
Heartbeat CPU 0 instructions: 180000000 cycles: 216556255 heartbeat IPC: 0.676678 cumulative IPC: 0.642487 (Simulation time: 0 hr 15 min 13 sec) 
*** Reached end of trace for Core: 0 Repeating trace: traces/spec2k17/srv_58.champsimtrace.xz
Heartbeat CPU 0 instructions: 190000000 cycles: 229809791 heartbeat IPC: 0.754516 cumulative IPC: 0.649374 (Simulation time: 0 hr 15 min 58 sec) 
Heartbeat CPU 0 instructions: 200000000 cycles: 248581083 heartbeat IPC: 0.532728 cumulative IPC: 0.640031 (Simulation time: 0 hr 16 min 39 sec) 
Heartbeat CPU 0 instructions: 210000002 cycles: 264335194 heartbeat IPC: 0.634755 cumulative IPC: 0.639699 (Simulation time: 0 hr 17 min 24 sec) 
*** Reached end of trace for Core: 0 Repeating trace: traces/spec2k17/srv_58.champsimtrace.xz
Heartbeat CPU 0 instructions: 220000000 cycles: 276802679 heartbeat IPC: 0.802086 cumulative IPC: 0.647409 (Simulation time: 0 hr 18 min 11 sec) 
Heartbeat CPU 0 instructions: 230000001 cycles: 295349011 heartbeat IPC: 0.53919 cumulative IPC: 0.64027 (Simulation time: 0 hr 19 min 0 sec) 
Heartbeat CPU 0 instructions: 240000003 cycles: 312097244 heartbeat IPC: 0.597078 cumulative IPC: 0.637841 (Simulation time: 0 hr 20 min 0 sec) 
*** Reached end of trace for Core: 0 Repeating trace: traces/spec2k17/srv_58.champsimtrace.xz
Heartbeat CPU 0 instructions: 250000000 cycles: 323480460 heartbeat IPC: 0.878486 cumulative IPC: 0.646699 (Simulation time: 0 hr 20 min 47 sec) 
Finished CPU 0 instructions: 200000000 cycles: 309263037 cumulative IPC: 0.646699 (Simulation time: 0 hr 20 min 47 sec) 

ChampSim completed all CPUs

Region of Interest Statistics

CPU 0 cumulative IPC: 0.646699 instructions: 200000000 cycles: 309263037
ITLB TOTAL     ACCESS:   36472854  HIT:   35952802  MISS:     520052  HIT %:    98.5741  MISS %:    1.42586   MPKI: 2.60026
ITLB LOAD TRANSLATION ACCESS:   36472854  HIT:   35952802  MISS:     520052  HIT %:    98.5741  MISS %:    1.42586   MPKI: 2.60026
ITLB PREFETCH  REQUESTED:          0  ISSUED:          0  USEFUL:          0  USELESS:          0
ITLB USEFUL LOAD PREFETCHES:          0 PREFETCH ISSUED TO LOWER LEVEL:          0  ACCURACY: -nan
ITLB TIMELY PREFETCHES:          0 LATE PREFETCHES: 0 DROPPED PREFETCHES: 0
ITLB PREFETCHES SAME FILL-ORIGIN LEVEL: 0 DIFFERENT FILL-ORIGIN LEVEL: 0
ITLB AVERAGE MISS LATENCY: 9.02337 cycles
ITLB RQ	ACCESS:   40848084	FORWARD:          0	MERGED:    4205689	TO_CACHE:   36642395

DTLB TOTAL     ACCESS:   43229307  HIT:   42577920  MISS:     651387  HIT %:    98.4932  MISS %:    1.50682   MPKI: 3.25693
DTLB LOAD TRANSLATION ACCESS:   43229307  HIT:   42577920  MISS:     651387  HIT %:    98.4932  MISS %:    1.50682   MPKI: 3.25693
DTLB PREFETCH  REQUESTED:          0  ISSUED:          0  USEFUL:          0  USELESS:          0
DTLB USEFUL LOAD PREFETCHES:          0 PREFETCH ISSUED TO LOWER LEVEL:          0  ACCURACY: -nan
DTLB TIMELY PREFETCHES:          0 LATE PREFETCHES: 0 DROPPED PREFETCHES: 0
DTLB PREFETCHES SAME FILL-ORIGIN LEVEL: 0 DIFFERENT FILL-ORIGIN LEVEL: 0
DTLB AVERAGE MISS LATENCY: 8.90122 cycles
DTLB RQ	ACCESS:   59537003	FORWARD:          0	MERGED:   16279656	TO_CACHE:   43257347

STLB TOTAL     ACCESS:    8668857  HIT:    8668318  MISS:        539  HIT %:    99.9938  MISS %: 0.00621766   MPKI: 0.002695
STLB LOAD TRANSLATION ACCESS:    1171439  HIT:    1170900  MISS:        539  HIT %:     99.954  MISS %:  0.0460118   MPKI: 0.002695
STLB TRANSLATION FROM L1D PREFETCHER ACCESS:    7497418  HIT:    7497418  MISS:          0  HIT %:        100  MISS %:          0   MPKI: 0
STLB PREFETCH  REQUESTED:          0  ISSUED:          0  USEFUL:          0  USELESS:          0
STLB USEFUL LOAD PREFETCHES:          0 PREFETCH ISSUED TO LOWER LEVEL:          0  ACCURACY: -nan
STLB TIMELY PREFETCHES:          0 LATE PREFETCHES: 0 DROPPED PREFETCHES: 1775
STLB PREFETCHES SAME FILL-ORIGIN LEVEL: 0 DIFFERENT FILL-ORIGIN LEVEL: 0
STLB AVERAGE MISS LATENCY: 53.9258 cycles
STLB RQ	ACCESS:   11257190	FORWARD:          0	MERGED:    2586558	TO_CACHE:    8670632

STLB Hit, L1D data hit: 0
STLB Hit, L2C data hit: 0
STLB Hit, LLC data hit: 0
STLB Hit, LLC data miss: 0
STLB STLB hints to L2: 0
L1D TOTAL     ACCESS:   69258518  HIT:   68363816  MISS:     894702  HIT %:    98.7082  MISS %:    1.29183   MPKI: 4.47351
L1D LOAD      ACCESS:   38524391  HIT:   37897628  MISS:     626763  HIT %:    98.3731  MISS %:    1.62693   MPKI: 3.13381
L1D RFO       ACCESS:   20658157  HIT:   20396578  MISS:     261579  HIT %:    98.7338  MISS %:    1.26623   MPKI: 1.3079
L1D PREFETCH  ACCESS:   10075970  HIT:   10069610  MISS:       6360  HIT %:    99.9369  MISS %:  0.0631205   MPKI: 0.0318
AGUS PREFETCH L1 MISS: 0
L1D PREFETCH  REQUESTED:   20717508  ISSUED:   20717497  USEFUL:       2691  USELESS:       3664
L1D USEFUL LOAD PREFETCHES:       2691 PREFETCH ISSUED TO LOWER LEVEL:      10774  ACCURACY: 24.9768
L1D TIMELY PREFETCHES:       2691 LATE PREFETCHES: 4414 DROPPED PREFETCHES: 1839
L1D PREFETCHES SAME FILL-ORIGIN LEVEL: 10774 DIFFERENT FILL-ORIGIN LEVEL: 0
L1D AVERAGE MISS LATENCY: 1.22517e+06 cycles
L1D RQ	ACCESS:   53962850	FORWARD:          0	MERGED:   15201377	TO_CACHE:   38551213
L1D WQ	ACCESS:   21214489	FORWARD:     224388	MERGED:     228699	TO_CACHE:   20985790
L1D PQ	ACCESS:   10631746	FORWARD:          0	MERGED:     531867	TO_CACHE:   10085751

L1D UNIQUE REGIONS ACCESSED: 0
L1D REGIONS CONFLICTS: 0
L1D Cross Page Prefetch Requests: 8512788
L1D Same Page Prefetch Requests: 2200108
L1D ROI Sum of L1D PQ occupancy: 141865649
L1D PREFETCHES PUSHED FROM L2C: 0
L1I TOTAL     ACCESS:   40499652  HIT:   38563552  MISS:    1936100  HIT %:    95.2195  MISS %:    4.78053   MPKI: 9.6805
L1I LOAD      ACCESS:   40499652  HIT:   38563552  MISS:    1936100  HIT %:    95.2195  MISS %:    4.78053   MPKI: 9.6805
L1I PREFETCH  REQUESTED:          0  ISSUED:          0  USEFUL:          0  USELESS:          0
L1I USEFUL LOAD PREFETCHES:          0 PREFETCH ISSUED TO LOWER LEVEL:          0  ACCURACY: -nan
L1I TIMELY PREFETCHES:          0 LATE PREFETCHES: 0 DROPPED PREFETCHES: 0
L1I PREFETCHES SAME FILL-ORIGIN LEVEL: 0 DIFFERENT FILL-ORIGIN LEVEL: 0
L1I AVERAGE MISS LATENCY: 18.0215 cycles
L1I RQ	ACCESS:   63948964	FORWARD:          0	MERGED:   23100880	TO_CACHE:   40848084

BTB TOTAL     ACCESS:   35033009  HIT:   31765673  MISS:    3267336  HIT %:    90.6736  MISS %:    9.32645   MPKI: 16.3367
BTB BRANCH_DIRECT_JUMP	ACCESS:    3530101  HIT:    3387873  MISS:     142228
BTB BRANCH_INDIRECT	ACCESS:   14433198  HIT:   13493749  MISS:     939449
BTB BRANCH_CONDITIONAL	ACCESS:    7608282  HIT:    7427963  MISS:     180319
BTB BRANCH_DIRECT_CALL	ACCESS:    2343708  HIT:    2092536  MISS:     251172
BTB BRANCH_INDIRECT_CALL	ACCESS:    2387048  HIT:    2184647  MISS:     202401
BTB BRANCH_RETURN	ACCESS:    4730672  HIT:    3178905  MISS:    1551767
BTB BRANCH_OTHER ACCESS:          0  HIT:          0  MISS:          0

L2C TOTAL     ACCESS:    3254589  HIT:    2815479  MISS:     439110  HIT %:     86.508  MISS %:     13.492   MPKI: 2.19555
L2C LOAD      ACCESS:    2558449  HIT:    2188522  MISS:     369927  HIT %:     85.541  MISS %:     14.459   MPKI: 1.84963
L2C DATA LOAD MPKI: 0.571425
L2C INSTRUCTION LOAD MPKI: 1.27821
L2C RFO       ACCESS:     261579  HIT:     204928  MISS:      56651  HIT %:    78.3427  MISS %:    21.6573   MPKI: 0.283255
L2C PREFETCH  ACCESS:      10774  HIT:       8693  MISS:       2081  HIT %:     80.685  MISS %:     19.315   MPKI: 0.010405
AGUS PREFETCH L1 MISS: 0
L2C DATA PREFETCH MPKI: 0.010405
L2C INSTRUCTION PREFETCH MPKI: 0
L2C WRITEBACK ACCESS:     420435  HIT:     410833  MISS:       9602  HIT %:    97.7162  MISS %:    2.28383   MPKI: 0.04801
L2C LOAD TRANSLATION ACCESS:        674  HIT:        155  MISS:        519  HIT %:     22.997  MISS %:     77.003   MPKI: 0.002595
L2C TRANSLATION FROM L1D PREFETCHER ACCESS:       2678  HIT:       2348  MISS:        330  HIT %:    87.6774  MISS %:    12.3226   MPKI: 0.00165
L2C PREFETCH  REQUESTED:          0  ISSUED:          0  USEFUL:        728  USELESS:       1652
L2C USEFUL LOAD PREFETCHES:        728 PREFETCH ISSUED TO LOWER LEVEL:       2081  ACCURACY: 34.9832
L2C TIMELY PREFETCHES:        728 LATE PREFETCHES: 0 DROPPED PREFETCHES: 0
L2C PREFETCHES SAME FILL-ORIGIN LEVEL: 0 DIFFERENT FILL-ORIGIN LEVEL: 0
L2C AVERAGE MISS LATENCY: 29.5068 cycles
L2C RQ	ACCESS:    2823380	FORWARD:          0	MERGED:          0	TO_CACHE:    2823380
L2C WQ	ACCESS:     420435	FORWARD:          0	MERGED:          0	TO_CACHE:     420435
L2C PQ	ACCESS:      10774	FORWARD:          0	MERGED:          0	TO_CACHE:      10774

L2C Instructions Evicting Data 89733
L2C Translations Evicting Data 558
L2C Data Evicting Data 87773
L2C Instructions Evicting Instructions 165610
L2C Translations Evicting Instructions 287
L2C Data Evicting Instructions 84713
L2C Instructions Evicting Translations 299
L2C Translations Evicting Translations 2
L2C Data Evicting Translations 526
L2C Dense regions hint from L2: 0
PSCL5 TOTAL     ACCESS:       1419  HIT:       1419  MISS:          0  HIT %:        100  MISS %:          0   MPKI: 0
PSCL5 LOAD TRANSLATION ACCESS:        539  HIT:        539  MISS:          0  HIT %:        100  MISS %:          0   MPKI: 0
PSCL5 TRANSLATION FROM L1D PREFETCHER ACCESS:        880  HIT:        880  MISS:          0  HIT %:        100  MISS %:          0   MPKI: 0
PSCL5 PREFETCH  REQUESTED:          0  ISSUED:          0  USEFUL:          0  USELESS:          0
PSCL5 USEFUL LOAD PREFETCHES:          0 PREFETCH ISSUED TO LOWER LEVEL:          0  ACCURACY: -nan
PSCL5 TIMELY PREFETCHES:          0 LATE PREFETCHES: 0 DROPPED PREFETCHES: 0
PSCL5 PREFETCHES SAME FILL-ORIGIN LEVEL: 0 DIFFERENT FILL-ORIGIN LEVEL: 0

PSCL4 TOTAL     ACCESS:       1413  HIT:       1413  MISS:          0  HIT %:        100  MISS %:          0   MPKI: 0
PSCL4 LOAD TRANSLATION ACCESS:        539  HIT:        539  MISS:          0  HIT %:        100  MISS %:          0   MPKI: 0
PSCL4 TRANSLATION FROM L1D PREFETCHER ACCESS:        874  HIT:        874  MISS:          0  HIT %:        100  MISS %:          0   MPKI: 0
PSCL4 PREFETCH  REQUESTED:          0  ISSUED:          0  USEFUL:          0  USELESS:          0
PSCL4 USEFUL LOAD PREFETCHES:          0 PREFETCH ISSUED TO LOWER LEVEL:          0  ACCURACY: -nan
PSCL4 TIMELY PREFETCHES:          0 LATE PREFETCHES: 0 DROPPED PREFETCHES: 0
PSCL4 PREFETCHES SAME FILL-ORIGIN LEVEL: 0 DIFFERENT FILL-ORIGIN LEVEL: 0

PSCL3 TOTAL     ACCESS:        802  HIT:        763  MISS:         39  HIT %:    95.1372  MISS %:    4.86284   MPKI: 0.000195
PSCL3 LOAD TRANSLATION ACCESS:        361  HIT:        322  MISS:         39  HIT %:    89.1967  MISS %:    10.8033   MPKI: 0.000195
PSCL3 TRANSLATION FROM L1D PREFETCHER ACCESS:        441  HIT:        441  MISS:          0  HIT %:        100  MISS %:          0   MPKI: 0
PSCL3 PREFETCH  REQUESTED:          0  ISSUED:          0  USEFUL:          0  USELESS:          0
PSCL3 USEFUL LOAD PREFETCHES:          0 PREFETCH ISSUED TO LOWER LEVEL:          0  ACCURACY: -nan
PSCL3 TIMELY PREFETCHES:          0 LATE PREFETCHES: 0 DROPPED PREFETCHES: 0
PSCL3 PREFETCHES SAME FILL-ORIGIN LEVEL: 0 DIFFERENT FILL-ORIGIN LEVEL: 0

PSCL2 TOTAL     ACCESS:        650  HIT:        554  MISS:         96  HIT %:    85.2308  MISS %:    14.7692   MPKI: 0.00048
PSCL2 LOAD TRANSLATION ACCESS:        539  HIT:        443  MISS:         96  HIT %:    82.1892  MISS %:    17.8108   MPKI: 0.00048
PSCL2 TRANSLATION FROM L1D PREFETCHER ACCESS:        111  HIT:        111  MISS:          0  HIT %:        100  MISS %:          0   MPKI: 0
PSCL2 PREFETCH  REQUESTED:          0  ISSUED:          0  USEFUL:          0  USELESS:          0
PSCL2 USEFUL LOAD PREFETCHES:          0 PREFETCH ISSUED TO LOWER LEVEL:          0  ACCURACY: -nan
PSCL2 TIMELY PREFETCHES:          0 LATE PREFETCHES: 0 DROPPED PREFETCHES: 0
PSCL2 PREFETCHES SAME FILL-ORIGIN LEVEL: 0 DIFFERENT FILL-ORIGIN LEVEL: 0

LLC TOTAL     ACCESS:     505996  HIT:     505533  MISS:        463  HIT %:    99.9085  MISS %:  0.0915027   MPKI: 0.002315
LLC LOAD      ACCESS:     369927  HIT:     369608  MISS:        319  HIT %:    99.9138  MISS %:  0.0862332   MPKI: 0.001595
LLC RFO       ACCESS:      56651  HIT:      56651  MISS:          0  HIT %:        100  MISS %:          0   MPKI: 0
LLC PREFETCH  ACCESS:       2081  HIT:       2007  MISS:         74  HIT %:     96.444  MISS %:    3.55598   MPKI: 0.00037
AGUS PREFETCH L1 MISS: 0
LLC WRITEBACK ACCESS:      76488  HIT:      76484  MISS:          4  HIT %:    99.9948  MISS %: 0.00522958   MPKI: 2e-05
LLC LOAD TRANSLATION ACCESS:        519  HIT:        508  MISS:         11  HIT %:    97.8805  MISS %:    2.11946   MPKI: 5.5e-05
LLC TRANSLATION FROM L1D PREFETCHER ACCESS:        330  HIT:        275  MISS:         55  HIT %:    83.3333  MISS %:    16.6667   MPKI: 0.000275
LLC PREFETCH  REQUESTED:          0  ISSUED:          0  USEFUL:         31  USELESS:          6
LLC USEFUL LOAD PREFETCHES:         31 PREFETCH ISSUED TO LOWER LEVEL:         74  ACCURACY: 41.8919
LLC TIMELY PREFETCHES:         31 LATE PREFETCHES: 0 DROPPED PREFETCHES: 0
LLC PREFETCHES SAME FILL-ORIGIN LEVEL: 0 DIFFERENT FILL-ORIGIN LEVEL: 0
LLC AVERAGE MISS LATENCY: 154.382 cycles
LLC RQ	ACCESS:     427427	FORWARD:          0	MERGED:          0	TO_CACHE:     427427
LLC WQ	ACCESS:      76488	FORWARD:          0	MERGED:          0	TO_CACHE:      76488
LLC PQ	ACCESS:       2081	FORWARD:          0	MERGED:          0	TO_CACHE:       2081

LLC Dense regions hint to LLC: 0

RAW hits: 3385747
Loads Generated: 57348600
Loads sent to L1D: 53962850
Stores Generated: 21214489
Stores sent to L1D: 21214489
Major fault: 0 Minor fault: 1185
Allocated PAGES: 1185
Completed 
Accuracy : 92.0921
Number of unique groups: 1606417

DRAM Statistics
 CHANNEL 0
 RQ ROW_BUFFER_HIT:         67  ROW_BUFFER_MISS:        392
 DBUS_CONGESTED:          0
 WQ ROW_BUFFER_HIT:          0  ROW_BUFFER_MISS:          0  FULL:          0

 AVG_CONGESTED_CYCLE: -
 All warmup complete: 2
Channel 0 Bank busy for read cycles: 0
Channel 0 Bank busy for write cycles: 0
Channel 0
Rank 0
0banks busy for read cycles: 309203720
0banks busy for write cycles: 0
1banks busy for read cycles: 56780
1banks busy for write cycles: 0
2banks busy for read cycles: 2244
2banks busy for write cycles: 0
3banks busy for read cycles: 294
3banks busy for write cycles: 0
4banks busy for read cycles: 0
4banks busy for write cycles: 0
5banks busy for read cycles: 0
5banks busy for write cycles: 0
6banks busy for read cycles: 0
6banks busy for write cycles: 0
7banks busy for read cycles: 0
7banks busy for write cycles: 0
8banks busy for read cycles: 0
8banks busy for write cycles: 0

CPU 0 Branch Prediction Accuracy: 99.8678% MPKI: 0.264215 Average ROB Occupancy at Mispredict: 41.5644
Branch types
NOT_BRANCH: 160022998 80.0115%
BRANCH_DIRECT_JUMP: 3530101 1.76505%
BRANCH_INDIRECT: 14433198 7.2166%
BRANCH_CONDITIONAL: 12551976 6.27599%
BRANCH_DIRECT_CALL: 2343708 1.17185%
BRANCH_INDIRECT_CALL: 2387048 1.19352%
BRANCH_RETURN: 4730672 2.36534%
BRANCH_OTHER: 0 0%

DRAM PAGES: 1048576
Allocated PAGES: 1185
