
*** ChampSim Multicore Out-of-Order Simulator ***

Warmup Instructions: 50000000
Simulation Instructions: 200000000
Number of CPUs: 1
LLC sets: 2048
LLC ways: 16
Off-chip DRAM Size: 4096 MB Channels: 1 Width: 64-bit Data Rate: 6400 MT/s
CPU 0 runs traces/spec2k17/srv_51.champsimtrace.xz
.xz
BTB has LRU replacement policy
ITLB has LRU replacement policy
DTLB has LRU replacement policy
STLB has LRU replacement policy
L1I has LRU replacement policy
L1D has LRU replacement policy
Initialize SRRIP state for L2C
Initialize DRRIP state for LLC
Heartbeat CPU 0 instructions: 10000001 cycles: 2876319 heartbeat IPC: 3.47667 cumulative IPC: 3.47667 (Simulation time: 0 hr 0 min 33 sec) 
Heartbeat CPU 0 instructions: 20000003 cycles: 5680093 heartbeat IPC: 3.56662 cumulative IPC: 3.52107 (Simulation time: 0 hr 1 min 3 sec) 
Heartbeat CPU 0 instructions: 30000003 cycles: 8552606 heartbeat IPC: 3.48127 cumulative IPC: 3.5077 (Simulation time: 0 hr 1 min 35 sec) 
*** Reached end of trace for Core: 0 Repeating trace: traces/spec2k17/srv_51.champsimtrace.xz
Heartbeat CPU 0 instructions: 40000002 cycles: 11418129 heartbeat IPC: 3.48976 cumulative IPC: 3.5032 (Simulation time: 0 hr 2 min 6 sec) 
Heartbeat CPU 0 instructions: 50000001 cycles: 14221468 heartbeat IPC: 3.56717 cumulative IPC: 3.51581 (Simulation time: 0 hr 2 min 37 sec) 

Warmup complete CPU 0 instructions: 50000001 cycles: 14221468 (Simulation time: 0 hr 2 min 37 sec) 

Heartbeat CPU 0 instructions: 60000000 cycles: 40218842 heartbeat IPC: 0.384654 cumulative IPC: 0.384654 (Simulation time: 0 hr 3 min 27 sec) 
*** Reached end of trace for Core: 0 Repeating trace: traces/spec2k17/srv_51.champsimtrace.xz
Heartbeat CPU 0 instructions: 70000002 cycles: 67696267 heartbeat IPC: 0.363935 cumulative IPC: 0.374008 (Simulation time: 0 hr 4 min 37 sec) 
Heartbeat CPU 0 instructions: 80000001 cycles: 84576628 heartbeat IPC: 0.592404 cumulative IPC: 0.426408 (Simulation time: 0 hr 5 min 59 sec) 
Heartbeat CPU 0 instructions: 90000001 cycles: 112062529 heartbeat IPC: 0.363823 cumulative IPC: 0.408826 (Simulation time: 0 hr 8 min 9 sec) 
*** Reached end of trace for Core: 0 Repeating trace: traces/spec2k17/srv_51.champsimtrace.xz
Heartbeat CPU 0 instructions: 100000001 cycles: 138548868 heartbeat IPC: 0.377553 cumulative IPC: 0.402164 (Simulation time: 0 hr 12 min 0 sec) 
Heartbeat CPU 0 instructions: 110000000 cycles: 156069714 heartbeat IPC: 0.570749 cumulative IPC: 0.422987 (Simulation time: 0 hr 15 min 12 sec) 
Heartbeat CPU 0 instructions: 120000000 cycles: 182624994 heartbeat IPC: 0.376573 cumulative IPC: 0.415668 (Simulation time: 0 hr 19 min 4 sec) 
*** Reached end of trace for Core: 0 Repeating trace: traces/spec2k17/srv_51.champsimtrace.xz
Heartbeat CPU 0 instructions: 130000000 cycles: 209367223 heartbeat IPC: 0.37394 cumulative IPC: 0.40995 (Simulation time: 0 hr 21 min 55 sec) 
Heartbeat CPU 0 instructions: 140000000 cycles: 228607667 heartbeat IPC: 0.519739 cumulative IPC: 0.419803 (Simulation time: 0 hr 25 min 1 sec) 
Heartbeat CPU 0 instructions: 150000000 cycles: 252719120 heartbeat IPC: 0.414741 cumulative IPC: 0.419291 (Simulation time: 0 hr 27 min 9 sec) 
*** Reached end of trace for Core: 0 Repeating trace: traces/spec2k17/srv_51.champsimtrace.xz
Heartbeat CPU 0 instructions: 160000003 cycles: 280660051 heartbeat IPC: 0.357898 cumulative IPC: 0.412853 (Simulation time: 0 hr 28 min 41 sec) 
Heartbeat CPU 0 instructions: 170000001 cycles: 300688045 heartbeat IPC: 0.499301 cumulative IPC: 0.418897 (Simulation time: 0 hr 29 min 44 sec) 
Heartbeat CPU 0 instructions: 180000002 cycles: 324881028 heartbeat IPC: 0.413343 cumulative IPC: 0.418465 (Simulation time: 0 hr 30 min 40 sec) 
*** Reached end of trace for Core: 0 Repeating trace: traces/spec2k17/srv_51.champsimtrace.xz
Heartbeat CPU 0 instructions: 190000001 cycles: 351011406 heartbeat IPC: 0.382696 cumulative IPC: 0.415689 (Simulation time: 0 hr 32 min 22 sec) 
Heartbeat CPU 0 instructions: 200000001 cycles: 373126730 heartbeat IPC: 0.452175 cumulative IPC: 0.417938 (Simulation time: 0 hr 33 min 18 sec) 
Heartbeat CPU 0 instructions: 210000002 cycles: 396865842 heartbeat IPC: 0.421246 cumulative IPC: 0.418143 (Simulation time: 0 hr 34 min 4 sec) 
*** Reached end of trace for Core: 0 Repeating trace: traces/spec2k17/srv_51.champsimtrace.xz
Heartbeat CPU 0 instructions: 220000000 cycles: 421044481 heartbeat IPC: 0.413588 cumulative IPC: 0.417872 (Simulation time: 0 hr 34 min 37 sec) 
Heartbeat CPU 0 instructions: 230000002 cycles: 445410568 heartbeat IPC: 0.410407 cumulative IPC: 0.41745 (Simulation time: 0 hr 35 min 9 sec) 
Heartbeat CPU 0 instructions: 240000001 cycles: 468816781 heartbeat IPC: 0.427237 cumulative IPC: 0.417954 (Simulation time: 0 hr 35 min 40 sec) 
*** Reached end of trace for Core: 0 Repeating trace: traces/spec2k17/srv_51.champsimtrace.xz
Heartbeat CPU 0 instructions: 250000003 cycles: 492454794 heartbeat IPC: 0.423047 cumulative IPC: 0.418206 (Simulation time: 0 hr 36 min 11 sec) 
Finished CPU 0 instructions: 200000002 cycles: 478233326 cumulative IPC: 0.418206 (Simulation time: 0 hr 36 min 11 sec) 

ChampSim completed all CPUs

Region of Interest Statistics

CPU 0 cumulative IPC: 0.418206 instructions: 200000002 cycles: 478233326
ITLB TOTAL     ACCESS:   34148692  HIT:   33257705  MISS:     890987  HIT %:    97.3909  MISS %:    2.60914   MPKI: 4.45493
ITLB LOAD TRANSLATION ACCESS:   34148692  HIT:   33257705  MISS:     890987  HIT %:    97.3909  MISS %:    2.60914   MPKI: 4.45493
ITLB PREFETCH  REQUESTED:          0  ISSUED:          0  USEFUL:          0  USELESS:          0
ITLB USEFUL LOAD PREFETCHES:          0 PREFETCH ISSUED TO LOWER LEVEL:          0  ACCURACY: -nan
ITLB TIMELY PREFETCHES:          0 LATE PREFETCHES: 0 DROPPED PREFETCHES: 0
ITLB PREFETCHES SAME FILL-ORIGIN LEVEL: 0 DIFFERENT FILL-ORIGIN LEVEL: 0
ITLB AVERAGE MISS LATENCY: 10.0121 cycles
ITLB RQ	ACCESS:   39346404	FORWARD:          0	MERGED:    4956339	TO_CACHE:   34390065

DTLB TOTAL     ACCESS:   42019952  HIT:   40972346  MISS:    1047606  HIT %:    97.5069  MISS %:    2.49312   MPKI: 5.23803
DTLB LOAD TRANSLATION ACCESS:   42019952  HIT:   40972346  MISS:    1047606  HIT %:    97.5069  MISS %:    2.49312   MPKI: 5.23803
DTLB PREFETCH  REQUESTED:          0  ISSUED:          0  USEFUL:          0  USELESS:          0
DTLB USEFUL LOAD PREFETCHES:          0 PREFETCH ISSUED TO LOWER LEVEL:          0  ACCURACY: -nan
DTLB TIMELY PREFETCHES:          0 LATE PREFETCHES: 0 DROPPED PREFETCHES: 0
DTLB PREFETCHES SAME FILL-ORIGIN LEVEL: 0 DIFFERENT FILL-ORIGIN LEVEL: 0
DTLB AVERAGE MISS LATENCY: 14.7514 cycles
DTLB RQ	ACCESS:   55068152	FORWARD:          0	MERGED:   12982672	TO_CACHE:   42085480

STLB TOTAL     ACCESS:    3440208  HIT:    3354466  MISS:      85742  HIT %:    97.5077  MISS %:    2.49235   MPKI: 0.42871
STLB LOAD TRANSLATION ACCESS:    1938593  HIT:    1853350  MISS:      85243  HIT %:    95.6028  MISS %:    4.39716   MPKI: 0.426215
STLB TRANSLATION FROM L1D PREFETCHER ACCESS:    1501615  HIT:    1501116  MISS:        499  HIT %:    99.9668  MISS %:  0.0332309   MPKI: 0.002495
STLB PREFETCH  REQUESTED:          0  ISSUED:          0  USEFUL:        369  USELESS:        128
STLB USEFUL LOAD PREFETCHES:        369 PREFETCH ISSUED TO LOWER LEVEL:          0  ACCURACY: inf
STLB TIMELY PREFETCHES:        369 LATE PREFETCHES: 14 DROPPED PREFETCHES: 708
STLB PREFETCHES SAME FILL-ORIGIN LEVEL: 0 DIFFERENT FILL-ORIGIN LEVEL: 0
STLB AVERAGE MISS LATENCY: 81.5695 cycles
STLB RQ	ACCESS:    3787346	FORWARD:          0	MERGED:     346409	TO_CACHE:    3440937

STLB Hit, L1D data hit: 0
STLB Hit, L2C data hit: 0
STLB Hit, LLC data hit: 0
STLB Hit, LLC data miss: 0
STLB STLB hints to L2: 0
L1D TOTAL     ACCESS:   55850749  HIT:   53426380  MISS:    2424369  HIT %:    95.6592  MISS %:     4.3408   MPKI: 12.1218
L1D LOAD      ACCESS:   34024477  HIT:   32345888  MISS:    1678589  HIT %:    95.0665  MISS %:    4.93347   MPKI: 8.39294
L1D RFO       ACCESS:   19981880  HIT:   19242950  MISS:     738930  HIT %:     96.302  MISS %:      3.698   MPKI: 3.69465
L1D PREFETCH  ACCESS:    1844392  HIT:    1837542  MISS:       6850  HIT %:    99.6286  MISS %:   0.371396   MPKI: 0.03425
AGUS PREFETCH L1 MISS: 0
L1D PREFETCH  REQUESTED:    3804660  ISSUED:    3804660  USEFUL:       3595  USELESS:       3255
L1D USEFUL LOAD PREFETCHES:       3595 PREFETCH ISSUED TO LOWER LEVEL:       8085  ACCURACY: 44.4651
L1D TIMELY PREFETCHES:       3595 LATE PREFETCHES: 1235 DROPPED PREFETCHES: 922
L1D PREFETCHES SAME FILL-ORIGIN LEVEL: 8085 DIFFERENT FILL-ORIGIN LEVEL: 0
L1D AVERAGE MISS LATENCY: 187419 cycles
L1D RQ	ACCESS:   46037349	FORWARD:          0	MERGED:   11598638	TO_CACHE:   34145570
L1D WQ	ACCESS:   21239484	FORWARD:     293360	MERGED:     316902	TO_CACHE:   20922582
L1D PQ	ACCESS:    1955907	FORWARD:          0	MERGED:     106935	TO_CACHE:    1848753

L1D UNIQUE REGIONS ACCESSED: 0
L1D REGIONS CONFLICTS: 0
L1D Cross Page Prefetch Requests: 1592996
L1D Same Page Prefetch Requests: 400627
L1D ROI Sum of L1D PQ occupancy: 25825660
L1D PREFETCHES PUSHED FROM L2C: 0
L1I TOTAL     ACCESS:   38620988  HIT:   33876883  MISS:    4744105  HIT %:    87.7163  MISS %:    12.2837   MPKI: 23.7205
L1I LOAD      ACCESS:   38620988  HIT:   33876883  MISS:    4744105  HIT %:    87.7163  MISS %:    12.2837   MPKI: 23.7205
L1I PREFETCH  REQUESTED:          0  ISSUED:          0  USEFUL:          0  USELESS:          0
L1I USEFUL LOAD PREFETCHES:          0 PREFETCH ISSUED TO LOWER LEVEL:          0  ACCURACY: -nan
L1I TIMELY PREFETCHES:          0 LATE PREFETCHES: 0 DROPPED PREFETCHES: 0
L1I PREFETCHES SAME FILL-ORIGIN LEVEL: 0 DIFFERENT FILL-ORIGIN LEVEL: 0
L1I AVERAGE MISS LATENCY: 23.2958 cycles
L1I RQ	ACCESS:   59224555	FORWARD:          0	MERGED:   19878151	TO_CACHE:   39346404

BTB TOTAL     ACCESS:   30738842  HIT:   24217545  MISS:    6521297  HIT %:    78.7848  MISS %:    21.2152   MPKI: 32.6065
BTB BRANCH_DIRECT_JUMP	ACCESS:    3651900  HIT:    3183732  MISS:     468168
BTB BRANCH_INDIRECT	ACCESS:   11989101  HIT:    9519360  MISS:    2469741
BTB BRANCH_CONDITIONAL	ACCESS:    8587084  HIT:    8036020  MISS:     551064
BTB BRANCH_DIRECT_CALL	ACCESS:    2662247  HIT:    1824351  MISS:     837896
BTB BRANCH_INDIRECT_CALL	ACCESS:     593188  HIT:     320085  MISS:     273103
BTB BRANCH_RETURN	ACCESS:    3255322  HIT:    1333997  MISS:    1921325
BTB BRANCH_OTHER ACCESS:          0  HIT:          0  MISS:          0

L2C TOTAL     ACCESS:    8524380  HIT:    5864395  MISS:    2659985  HIT %:    68.7956  MISS %:    31.2044   MPKI: 13.2999
L2C LOAD      ACCESS:    6421429  HIT:    4291810  MISS:    2129619  HIT %:    66.8357  MISS %:    33.1643   MPKI: 10.6481
L2C DATA LOAD MPKI: 3.73085
L2C INSTRUCTION LOAD MPKI: 6.91724
L2C RFO       ACCESS:     738930  HIT:     355507  MISS:     383423  HIT %:    48.1111  MISS %:    51.8889   MPKI: 1.91711
L2C PREFETCH  ACCESS:       8085  HIT:       5766  MISS:       2319  HIT %:    71.3173  MISS %:    28.6827   MPKI: 0.011595
AGUS PREFETCH L1 MISS: 0
L2C DATA PREFETCH MPKI: 0.011595
L2C INSTRUCTION PREFETCH MPKI: 0
L2C WRITEBACK ACCESS:    1219290  HIT:    1145601  MISS:      73689  HIT %:    93.9564  MISS %:     6.0436   MPKI: 0.368445
L2C LOAD TRANSLATION ACCESS:     134558  HIT:      64385  MISS:      70173  HIT %:    47.8493  MISS %:    52.1507   MPKI: 0.350865
L2C TRANSLATION FROM L1D PREFETCHER ACCESS:       2088  HIT:       1326  MISS:        762  HIT %:    63.5057  MISS %:    36.4943   MPKI: 0.00381
L2C PREFETCH  REQUESTED:          0  ISSUED:          0  USEFUL:        421  USELESS:       2653
L2C USEFUL LOAD PREFETCHES:        421 PREFETCH ISSUED TO LOWER LEVEL:       2319  ACCURACY: 18.1544
L2C TIMELY PREFETCHES:        421 LATE PREFETCHES: 0 DROPPED PREFETCHES: 0
L2C PREFETCHES SAME FILL-ORIGIN LEVEL: 0 DIFFERENT FILL-ORIGIN LEVEL: 0
L2C AVERAGE MISS LATENCY: 57.4511 cycles
L2C RQ	ACCESS:    7297035	FORWARD:          0	MERGED:          0	TO_CACHE:    7297005
L2C WQ	ACCESS:    1219290	FORWARD:         30	MERGED:          0	TO_CACHE:    1219290
L2C PQ	ACCESS:       8085	FORWARD:          0	MERGED:          0	TO_CACHE:       8085

L2C Instructions Evicting Data 545650
L2C Translations Evicting Data 41307
L2C Data Evicting Data 580975
L2C Instructions Evicting Instructions 810473
L2C Translations Evicting Instructions 26916
L2C Data Evicting Instructions 511999
L2C Instructions Evicting Translations 27325
L2C Translations Evicting Translations 2712
L2C Data Evicting Translations 38939
L2C Dense regions hint from L2: 0
PSCL5 TOTAL     ACCESS:      86450  HIT:      86450  MISS:          0  HIT %:        100  MISS %:          0   MPKI: 0
PSCL5 LOAD TRANSLATION ACCESS:      85229  HIT:      85229  MISS:          0  HIT %:        100  MISS %:          0   MPKI: 0
PSCL5 TRANSLATION FROM L1D PREFETCHER ACCESS:       1221  HIT:       1221  MISS:          0  HIT %:        100  MISS %:          0   MPKI: 0
PSCL5 PREFETCH  REQUESTED:          0  ISSUED:          0  USEFUL:          0  USELESS:          0
PSCL5 USEFUL LOAD PREFETCHES:          0 PREFETCH ISSUED TO LOWER LEVEL:          0  ACCURACY: -nan
PSCL5 TIMELY PREFETCHES:          0 LATE PREFETCHES: 0 DROPPED PREFETCHES: 0
PSCL5 PREFETCHES SAME FILL-ORIGIN LEVEL: 0 DIFFERENT FILL-ORIGIN LEVEL: 0

PSCL4 TOTAL     ACCESS:      85813  HIT:      85390  MISS:        423  HIT %:    99.5071  MISS %:   0.492932   MPKI: 0.002115
PSCL4 LOAD TRANSLATION ACCESS:      84636  HIT:      84213  MISS:        423  HIT %:    99.5002  MISS %:   0.499787   MPKI: 0.002115
PSCL4 TRANSLATION FROM L1D PREFETCHER ACCESS:       1177  HIT:       1177  MISS:          0  HIT %:        100  MISS %:          0   MPKI: 0
PSCL4 PREFETCH  REQUESTED:          0  ISSUED:          0  USEFUL:          0  USELESS:          0
PSCL4 USEFUL LOAD PREFETCHES:          0 PREFETCH ISSUED TO LOWER LEVEL:          0  ACCURACY: -nan
PSCL4 TIMELY PREFETCHES:          0 LATE PREFETCHES: 0 DROPPED PREFETCHES: 0
PSCL4 PREFETCHES SAME FILL-ORIGIN LEVEL: 0 DIFFERENT FILL-ORIGIN LEVEL: 0

PSCL3 TOTAL     ACCESS:      80639  HIT:      67075  MISS:      13564  HIT %:    83.1794  MISS %:    16.8206   MPKI: 0.06782
PSCL3 LOAD TRANSLATION ACCESS:      79768  HIT:      66204  MISS:      13564  HIT %:    82.9957  MISS %:    17.0043   MPKI: 0.06782
PSCL3 TRANSLATION FROM L1D PREFETCHER ACCESS:        871  HIT:        871  MISS:          0  HIT %:        100  MISS %:          0   MPKI: 0
PSCL3 PREFETCH  REQUESTED:          0  ISSUED:          0  USEFUL:          0  USELESS:          0
PSCL3 USEFUL LOAD PREFETCHES:          0 PREFETCH ISSUED TO LOWER LEVEL:          0  ACCURACY: -nan
PSCL3 TIMELY PREFETCHES:          0 LATE PREFETCHES: 0 DROPPED PREFETCHES: 0
PSCL3 PREFETCHES SAME FILL-ORIGIN LEVEL: 0 DIFFERENT FILL-ORIGIN LEVEL: 0

PSCL2 TOTAL     ACCESS:      86165  HIT:      50198  MISS:      35967  HIT %:     58.258  MISS %:     41.742   MPKI: 0.179835
PSCL2 LOAD TRANSLATION ACCESS:      85638  HIT:      49671  MISS:      35967  HIT %:    58.0011  MISS %:    41.9989   MPKI: 0.179835
PSCL2 TRANSLATION FROM L1D PREFETCHER ACCESS:        527  HIT:        527  MISS:          0  HIT %:        100  MISS %:          0   MPKI: 0
PSCL2 PREFETCH  REQUESTED:          0  ISSUED:          0  USEFUL:          0  USELESS:          0
PSCL2 USEFUL LOAD PREFETCHES:          0 PREFETCH ISSUED TO LOWER LEVEL:          0  ACCURACY: -nan
PSCL2 TIMELY PREFETCHES:          0 LATE PREFETCHES: 0 DROPPED PREFETCHES: 0
PSCL2 PREFETCHES SAME FILL-ORIGIN LEVEL: 0 DIFFERENT FILL-ORIGIN LEVEL: 0

LLC TOTAL     ACCESS:    3174881  HIT:    2783631  MISS:     391250  HIT %:    87.6767  MISS %:    12.3233   MPKI: 1.95625
LLC LOAD      ACCESS:    2129619  HIT:    1905560  MISS:     224059  HIT %:    89.4789  MISS %:    10.5211   MPKI: 1.12029
LLC RFO       ACCESS:     383417  HIT:     233666  MISS:     149751  HIT %:     60.943  MISS %:     39.057   MPKI: 0.748755
LLC PREFETCH  ACCESS:       2319  HIT:       2184  MISS:        135  HIT %:    94.1785  MISS %:    5.82147   MPKI: 0.000675
AGUS PREFETCH L1 MISS: 0
LLC WRITEBACK ACCESS:     588591  HIT:     585806  MISS:       2785  HIT %:    99.5268  MISS %:   0.473164   MPKI: 0.013925
LLC LOAD TRANSLATION ACCESS:      70173  HIT:      55760  MISS:      14413  HIT %:    79.4608  MISS %:    20.5392   MPKI: 0.072065
LLC TRANSLATION FROM L1D PREFETCHER ACCESS:        762  HIT:        655  MISS:        107  HIT %:     85.958  MISS %:     14.042   MPKI: 0.000535
LLC PREFETCH  REQUESTED:          0  ISSUED:          0  USEFUL:         52  USELESS:        170
LLC USEFUL LOAD PREFETCHES:         52 PREFETCH ISSUED TO LOWER LEVEL:        135  ACCURACY: 38.5185
LLC TIMELY PREFETCHES:         52 LATE PREFETCHES: 0 DROPPED PREFETCHES: 0
LLC PREFETCHES SAME FILL-ORIGIN LEVEL: 0 DIFFERENT FILL-ORIGIN LEVEL: 0
LLC AVERAGE MISS LATENCY: 192.278 cycles
LLC RQ	ACCESS:    2583977	FORWARD:          0	MERGED:          0	TO_CACHE:    2583971
LLC WQ	ACCESS:     588591	FORWARD:          6	MERGED:          0	TO_CACHE:     588591
LLC PQ	ACCESS:       2319	FORWARD:          0	MERGED:          0	TO_CACHE:       2319

LLC Dense regions hint to LLC: 0

RAW hits: 2341731
Loads Generated: 48379080
Loads sent to L1D: 46037349
Stores Generated: 21239482
Stores sent to L1D: 21239484
Major fault: 0 Minor fault: 6400
Allocated PAGES: 6400
Completed 
Accuracy : 91.7701
Number of unique groups: 5305150

DRAM Statistics
 CHANNEL 0
 RQ ROW_BUFFER_HIT:      90473  ROW_BUFFER_MISS:     297992
 DBUS_CONGESTED:        141
 WQ ROW_BUFFER_HIT:      39169  ROW_BUFFER_MISS:     204191  FULL:          0

 AVG_CONGESTED_CYCLE: 5
 All warmup complete: 2
Channel 0 Bank busy for read cycles: 0
Channel 0 Bank busy for write cycles: 0
Channel 0
Rank 0
0banks busy for read cycles: 422249743
0banks busy for write cycles: 101622
1banks busy for read cycles: 25814082
1banks busy for write cycles: 14917464
2banks busy for read cycles: 4359235
2banks busy for write cycles: 3845577
3banks busy for read cycles: 948614
3banks busy for write cycles: 1475703
4banks busy for read cycles: 258355
4banks busy for write cycles: 605290
5banks busy for read cycles: 133228
5banks busy for write cycles: 284812
6banks busy for read cycles: 160459
6banks busy for write cycles: 168702
7banks busy for read cycles: 256358
7banks busy for write cycles: 222820
8banks busy for read cycles: 947370
8banks busy for write cycles: 1483893

CPU 0 Branch Prediction Accuracy: 99.6854% MPKI: 0.56232 Average ROB Occupancy at Mispredict: 39.6388
Branch types
NOT_BRANCH: 164252984 82.1265%
BRANCH_DIRECT_JUMP: 3651900 1.82595%
BRANCH_INDIRECT: 11989101 5.99455%
BRANCH_CONDITIONAL: 13594936 6.79747%
BRANCH_DIRECT_CALL: 2662247 1.33112%
BRANCH_INDIRECT_CALL: 593188 0.296594%
BRANCH_RETURN: 3255322 1.62766%
BRANCH_OTHER: 0 0%

DRAM PAGES: 1048576
Allocated PAGES: 6400
