
*** ChampSim Multicore Out-of-Order Simulator ***

Warmup Instructions: 50000000
Simulation Instructions: 200000000
Number of CPUs: 1
LLC sets: 2048
LLC ways: 16
Off-chip DRAM Size: 4096 MB Channels: 1 Width: 64-bit Data Rate: 6400 MT/s
CPU 0 runs traces/spec2k17/srv_13.champsimtrace.xz
.xz
BTB has LRU replacement policy
ITLB has LRU replacement policy
DTLB has LRU replacement policy
STLB has LRU replacement policy
L1I has LRU replacement policy
L1D has LRU replacement policy
Initialize SRRIP state for L2C
Initialize DRRIP state for LLC
Heartbeat CPU 0 instructions: 10000002 cycles: 2807138 heartbeat IPC: 3.56235 cumulative IPC: 3.56235 (Simulation time: 0 hr 0 min 41 sec) 
Heartbeat CPU 0 instructions: 20000000 cycles: 5611196 heartbeat IPC: 3.56626 cumulative IPC: 3.5643 (Simulation time: 0 hr 1 min 18 sec) 
Heartbeat CPU 0 instructions: 30000003 cycles: 8417622 heartbeat IPC: 3.56325 cumulative IPC: 3.56395 (Simulation time: 0 hr 1 min 55 sec) 
*** Reached end of trace for Core: 0 Repeating trace: traces/spec2k17/srv_13.champsimtrace.xz
Heartbeat CPU 0 instructions: 40000001 cycles: 11215941 heartbeat IPC: 3.57357 cumulative IPC: 3.56635 (Simulation time: 0 hr 2 min 31 sec) 
Heartbeat CPU 0 instructions: 50000003 cycles: 14020984 heartbeat IPC: 3.56501 cumulative IPC: 3.56608 (Simulation time: 0 hr 3 min 8 sec) 

Warmup complete CPU 0 instructions: 50000003 cycles: 14020984 (Simulation time: 0 hr 3 min 8 sec) 

Heartbeat CPU 0 instructions: 60000000 cycles: 44203907 heartbeat IPC: 0.331313 cumulative IPC: 0.331313 (Simulation time: 0 hr 4 min 10 sec) 
*** Reached end of trace for Core: 0 Repeating trace: traces/spec2k17/srv_13.champsimtrace.xz
Heartbeat CPU 0 instructions: 70000001 cycles: 73176234 heartbeat IPC: 0.345157 cumulative IPC: 0.338093 (Simulation time: 0 hr 5 min 8 sec) 
Heartbeat CPU 0 instructions: 80000003 cycles: 102987231 heartbeat IPC: 0.335447 cumulative IPC: 0.337207 (Simulation time: 0 hr 6 min 4 sec) 
Heartbeat CPU 0 instructions: 90000001 cycles: 133243579 heartbeat IPC: 0.330509 cumulative IPC: 0.335507 (Simulation time: 0 hr 7 min 0 sec) 
*** Reached end of trace for Core: 0 Repeating trace: traces/spec2k17/srv_13.champsimtrace.xz
Heartbeat CPU 0 instructions: 100000000 cycles: 162464204 heartbeat IPC: 0.342224 cumulative IPC: 0.336829 (Simulation time: 0 hr 7 min 57 sec) 
Heartbeat CPU 0 instructions: 110000000 cycles: 191955634 heartbeat IPC: 0.339082 cumulative IPC: 0.337202 (Simulation time: 0 hr 8 min 56 sec) 
Heartbeat CPU 0 instructions: 120000002 cycles: 222259368 heartbeat IPC: 0.329992 cumulative IPC: 0.336153 (Simulation time: 0 hr 9 min 56 sec) 
*** Reached end of trace for Core: 0 Repeating trace: traces/spec2k17/srv_13.champsimtrace.xz
Heartbeat CPU 0 instructions: 130000001 cycles: 251357743 heartbeat IPC: 0.343662 cumulative IPC: 0.337074 (Simulation time: 0 hr 10 min 54 sec) 
Heartbeat CPU 0 instructions: 140000002 cycles: 281018851 heartbeat IPC: 0.337142 cumulative IPC: 0.337081 (Simulation time: 0 hr 11 min 45 sec) 
Heartbeat CPU 0 instructions: 150000002 cycles: 311123808 heartbeat IPC: 0.332171 cumulative IPC: 0.336584 (Simulation time: 0 hr 12 min 37 sec) 
*** Reached end of trace for Core: 0 Repeating trace: traces/spec2k17/srv_13.champsimtrace.xz
Heartbeat CPU 0 instructions: 160000002 cycles: 340187564 heartbeat IPC: 0.344071 cumulative IPC: 0.337251 (Simulation time: 0 hr 13 min 34 sec) 
Heartbeat CPU 0 instructions: 170000000 cycles: 369925192 heartbeat IPC: 0.336274 cumulative IPC: 0.337169 (Simulation time: 0 hr 14 min 30 sec) 
Heartbeat CPU 0 instructions: 180000003 cycles: 399960604 heartbeat IPC: 0.33294 cumulative IPC: 0.33684 (Simulation time: 0 hr 15 min 28 sec) 
*** Reached end of trace for Core: 0 Repeating trace: traces/spec2k17/srv_13.champsimtrace.xz
Heartbeat CPU 0 instructions: 190000000 cycles: 429146269 heartbeat IPC: 0.342634 cumulative IPC: 0.337248 (Simulation time: 0 hr 16 min 26 sec) 
Heartbeat CPU 0 instructions: 200000001 cycles: 458772686 heartbeat IPC: 0.337537 cumulative IPC: 0.337267 (Simulation time: 0 hr 17 min 25 sec) 
Heartbeat CPU 0 instructions: 210000000 cycles: 488534758 heartbeat IPC: 0.335998 cumulative IPC: 0.337187 (Simulation time: 0 hr 18 min 25 sec) 
*** Reached end of trace for Core: 0 Repeating trace: traces/spec2k17/srv_13.champsimtrace.xz
Heartbeat CPU 0 instructions: 220000000 cycles: 517960794 heartbeat IPC: 0.339835 cumulative IPC: 0.337342 (Simulation time: 0 hr 19 min 24 sec) 
Heartbeat CPU 0 instructions: 230000001 cycles: 547426137 heartbeat IPC: 0.339382 cumulative IPC: 0.337455 (Simulation time: 0 hr 20 min 29 sec) 
Heartbeat CPU 0 instructions: 240000000 cycles: 577179091 heartbeat IPC: 0.336101 cumulative IPC: 0.337383 (Simulation time: 0 hr 21 min 34 sec) 
*** Reached end of trace for Core: 0 Repeating trace: traces/spec2k17/srv_13.champsimtrace.xz
Heartbeat CPU 0 instructions: 250000000 cycles: 606905072 heartbeat IPC: 0.336406 cumulative IPC: 0.337334 (Simulation time: 0 hr 22 min 43 sec) 
Finished CPU 0 instructions: 200000003 cycles: 592884090 cumulative IPC: 0.337334 (Simulation time: 0 hr 22 min 43 sec) 

ChampSim completed all CPUs

Region of Interest Statistics

CPU 0 cumulative IPC: 0.337334 instructions: 200000003 cycles: 592884090
ITLB TOTAL     ACCESS:   34412434  HIT:   32574309  MISS:    1838125  HIT %:    94.6585  MISS %:    5.34146   MPKI: 9.19062
ITLB LOAD TRANSLATION ACCESS:   34412434  HIT:   32574309  MISS:    1838125  HIT %:    94.6585  MISS %:    5.34146   MPKI: 9.19062
ITLB PREFETCH  REQUESTED:          0  ISSUED:          0  USEFUL:          0  USELESS:          0
ITLB USEFUL LOAD PREFETCHES:          0 PREFETCH ISSUED TO LOWER LEVEL:          0  ACCURACY: -nan
ITLB TIMELY PREFETCHES:          0 LATE PREFETCHES: 0 DROPPED PREFETCHES: 0
ITLB PREFETCHES SAME FILL-ORIGIN LEVEL: 0 DIFFERENT FILL-ORIGIN LEVEL: 0
ITLB AVERAGE MISS LATENCY: 9.04123 cycles
ITLB RQ	ACCESS:   40213659	FORWARD:          0	MERGED:    5358190	TO_CACHE:   34855469

DTLB TOTAL     ACCESS:   45342885  HIT:   43549293  MISS:    1793592  HIT %:    96.0444  MISS %:    3.95562   MPKI: 8.96796
DTLB LOAD TRANSLATION ACCESS:   45342885  HIT:   43549293  MISS:    1793592  HIT %:    96.0444  MISS %:    3.95562   MPKI: 8.96796
DTLB PREFETCH  REQUESTED:          0  ISSUED:          0  USEFUL:          0  USELESS:          0
DTLB USEFUL LOAD PREFETCHES:          0 PREFETCH ISSUED TO LOWER LEVEL:          0  ACCURACY: -nan
DTLB TIMELY PREFETCHES:          0 LATE PREFETCHES: 0 DROPPED PREFETCHES: 0
DTLB PREFETCHES SAME FILL-ORIGIN LEVEL: 0 DIFFERENT FILL-ORIGIN LEVEL: 0
DTLB AVERAGE MISS LATENCY: 9.12214 cycles
DTLB RQ	ACCESS:   59720895	FORWARD:          0	MERGED:   14313380	TO_CACHE:   45407515

STLB TOTAL     ACCESS:    5100424  HIT:    5091026  MISS:       9398  HIT %:    99.8157  MISS %:   0.184259   MPKI: 0.04699
STLB LOAD TRANSLATION ACCESS:    3631717  HIT:    3622338  MISS:       9379  HIT %:    99.7417  MISS %:   0.258253   MPKI: 0.046895
STLB TRANSLATION FROM L1D PREFETCHER ACCESS:    1468707  HIT:    1468688  MISS:         19  HIT %:    99.9987  MISS %: 0.00129365   MPKI: 9.5e-05
STLB PREFETCH  REQUESTED:          0  ISSUED:          0  USEFUL:         10  USELESS:          9
STLB USEFUL LOAD PREFETCHES:         10 PREFETCH ISSUED TO LOWER LEVEL:          0  ACCURACY: inf
STLB TIMELY PREFETCHES:         10 LATE PREFETCHES: 7 DROPPED PREFETCHES: 425
STLB PREFETCHES SAME FILL-ORIGIN LEVEL: 0 DIFFERENT FILL-ORIGIN LEVEL: 0
STLB AVERAGE MISS LATENCY: 43.4454 cycles
STLB RQ	ACCESS:    5513996	FORWARD:          0	MERGED:     413139	TO_CACHE:    5100857

STLB Hit, L1D data hit: 0
STLB Hit, L2C data hit: 0
STLB Hit, LLC data hit: 0
STLB Hit, LLC data miss: 0
STLB STLB hints to L2: 0
L1D TOTAL     ACCESS:   59589248  HIT:   55766243  MISS:    3823005  HIT %:    93.5844  MISS %:     6.4156   MPKI: 19.115
L1D LOAD      ACCESS:   33452036  HIT:   30862768  MISS:    2589268  HIT %:    92.2598  MISS %:    7.74024   MPKI: 12.9463
L1D RFO       ACCESS:   24481062  HIT:   23417032  MISS:    1064030  HIT %:    95.6537  MISS %:    4.34634   MPKI: 5.32015
L1D PREFETCH  ACCESS:    1656150  HIT:    1486443  MISS:     169707  HIT %:    89.7529  MISS %:    10.2471   MPKI: 0.848535
AGUS PREFETCH L1 MISS: 0
L1D PREFETCH  REQUESTED:    3850129  ISSUED:    3850129  USEFUL:     161201  USELESS:       8505
L1D USEFUL LOAD PREFETCHES:     161201 PREFETCH ISSUED TO LOWER LEVEL:     328929  ACCURACY: 49.0078
L1D TIMELY PREFETCHES:     161201 LATE PREFETCHES: 158906 DROPPED PREFETCHES: 496
L1D PREFETCHES SAME FILL-ORIGIN LEVEL: 328929 DIFFERENT FILL-ORIGIN LEVEL: 0
L1D AVERAGE MISS LATENCY: 1.43693e+07 cycles
L1D RQ	ACCESS:   46955172	FORWARD:          0	MERGED:   13078222	TO_CACHE:   33582672
L1D WQ	ACCESS:   26311887	FORWARD:     296204	MERGED:     173664	TO_CACHE:   26138223
L1D PQ	ACCESS:    1967850	FORWARD:          0	MERGED:      83645	TO_CACHE:    1882279

L1D UNIQUE REGIONS ACCESSED: 0
L1D REGIONS CONFLICTS: 0
L1D Cross Page Prefetch Requests: 1360155
L1D Same Page Prefetch Requests: 614652
L1D ROI Sum of L1D PQ occupancy: 26077782
L1D PREFETCHES PUSHED FROM L2C: 0
L1I TOTAL     ACCESS:   38813599  HIT:   29172760  MISS:    9640839  HIT %:    75.1612  MISS %:    24.8388   MPKI: 48.2042
L1I LOAD      ACCESS:   38813599  HIT:   29172760  MISS:    9640839  HIT %:    75.1612  MISS %:    24.8388   MPKI: 48.2042
L1I PREFETCH  REQUESTED:          0  ISSUED:          0  USEFUL:          0  USELESS:          0
L1I USEFUL LOAD PREFETCHES:          0 PREFETCH ISSUED TO LOWER LEVEL:          0  ACCURACY: -nan
L1I TIMELY PREFETCHES:          0 LATE PREFETCHES: 0 DROPPED PREFETCHES: 0
L1I PREFETCHES SAME FILL-ORIGIN LEVEL: 0 DIFFERENT FILL-ORIGIN LEVEL: 0
L1I AVERAGE MISS LATENCY: 16.4229 cycles
L1I RQ	ACCESS:   57775979	FORWARD:          0	MERGED:   17562320	TO_CACHE:   40213659

BTB TOTAL     ACCESS:   30281760  HIT:   18910009  MISS:   11371751  HIT %:    62.4469  MISS %:    37.5531   MPKI: 56.8588
BTB BRANCH_DIRECT_JUMP	ACCESS:    2184471  HIT:    1385849  MISS:     798622
BTB BRANCH_INDIRECT	ACCESS:   11367631  HIT:    7108083  MISS:    4259548
BTB BRANCH_CONDITIONAL	ACCESS:    8713184  HIT:    7563917  MISS:    1149267
BTB BRANCH_DIRECT_CALL	ACCESS:    3386061  HIT:    1522950  MISS:    1863111
BTB BRANCH_INDIRECT_CALL	ACCESS:     622186  HIT:     244573  MISS:     377613
BTB BRANCH_RETURN	ACCESS:    4008227  HIT:    1084637  MISS:    2923590
BTB BRANCH_OTHER ACCESS:          0  HIT:          0  MISS:          0

L2C TOTAL     ACCESS:   15262469  HIT:   13842777  MISS:    1419692  HIT %:    90.6981  MISS %:    9.30185   MPKI: 7.09846
L2C LOAD      ACCESS:   12071160  HIT:   10960263  MISS:    1110897  HIT %:    90.7971  MISS %:     9.2029   MPKI: 5.55448
L2C DATA LOAD MPKI: 1.79321
L2C INSTRUCTION LOAD MPKI: 3.76127
L2C RFO       ACCESS:    1063709  HIT:     854947  MISS:     208762  HIT %:    80.3741  MISS %:    19.6259   MPKI: 1.04381
L2C PREFETCH  ACCESS:     328929  HIT:     286125  MISS:      42804  HIT %:    86.9869  MISS %:    13.0131   MPKI: 0.21402
AGUS PREFETCH L1 MISS: 0
L2C DATA PREFETCH MPKI: 0.21402
L2C INSTRUCTION PREFETCH MPKI: 0
L2C WRITEBACK ACCESS:    1787763  HIT:    1737678  MISS:      50085  HIT %:    97.1985  MISS %:    2.80155   MPKI: 0.250425
L2C LOAD TRANSLATION ACCESS:      10304  HIT:       3603  MISS:       6701  HIT %:     34.967  MISS %:     65.033   MPKI: 0.033505
L2C TRANSLATION FROM L1D PREFETCHER ACCESS:        604  HIT:        161  MISS:        443  HIT %:    26.6556  MISS %:    73.3444   MPKI: 0.002215
L2C PREFETCH  REQUESTED:          0  ISSUED:          0  USEFUL:       7776  USELESS:      35388
L2C USEFUL LOAD PREFETCHES:       7776 PREFETCH ISSUED TO LOWER LEVEL:      42804  ACCURACY: 18.1665
L2C TIMELY PREFETCHES:       7776 LATE PREFETCHES: 0 DROPPED PREFETCHES: 0
L2C PREFETCHES SAME FILL-ORIGIN LEVEL: 0 DIFFERENT FILL-ORIGIN LEVEL: 0
L2C AVERAGE MISS LATENCY: 32.491 cycles
L2C RQ	ACCESS:   13145825	FORWARD:          0	MERGED:          0	TO_CACHE:   13145779
L2C WQ	ACCESS:    1787763	FORWARD:         46	MERGED:          0	TO_CACHE:    1787763
L2C PQ	ACCESS:     328929	FORWARD:          0	MERGED:          0	TO_CACHE:     328929

L2C Instructions Evicting Data 304462
L2C Translations Evicting Data 5162
L2C Data Evicting Data 329246
L2C Instructions Evicting Instructions 446020
L2C Translations Evicting Instructions 1828
L2C Data Evicting Instructions 275942
L2C Instructions Evicting Translations 1773
L2C Translations Evicting Translations 154
L2C Data Evicting Translations 5020
L2C Dense regions hint from L2: 0
PSCL5 TOTAL     ACCESS:       9822  HIT:       9822  MISS:          0  HIT %:        100  MISS %:          0   MPKI: 0
PSCL5 LOAD TRANSLATION ACCESS:       9372  HIT:       9372  MISS:          0  HIT %:        100  MISS %:          0   MPKI: 0
PSCL5 TRANSLATION FROM L1D PREFETCHER ACCESS:        450  HIT:        450  MISS:          0  HIT %:        100  MISS %:          0   MPKI: 0
PSCL5 PREFETCH  REQUESTED:          0  ISSUED:          0  USEFUL:          0  USELESS:          0
PSCL5 USEFUL LOAD PREFETCHES:          0 PREFETCH ISSUED TO LOWER LEVEL:          0  ACCURACY: -nan
PSCL5 TIMELY PREFETCHES:          0 LATE PREFETCHES: 0 DROPPED PREFETCHES: 0
PSCL5 PREFETCHES SAME FILL-ORIGIN LEVEL: 0 DIFFERENT FILL-ORIGIN LEVEL: 0

PSCL4 TOTAL     ACCESS:       9155  HIT:       9124  MISS:         31  HIT %:    99.6614  MISS %:   0.338613   MPKI: 0.000155
PSCL4 LOAD TRANSLATION ACCESS:       8751  HIT:       8720  MISS:         31  HIT %:    99.6458  MISS %:   0.354245   MPKI: 0.000155
PSCL4 TRANSLATION FROM L1D PREFETCHER ACCESS:        404  HIT:        404  MISS:          0  HIT %:        100  MISS %:          0   MPKI: 0
PSCL4 PREFETCH  REQUESTED:          0  ISSUED:          0  USEFUL:          0  USELESS:          0
PSCL4 USEFUL LOAD PREFETCHES:          0 PREFETCH ISSUED TO LOWER LEVEL:          0  ACCURACY: -nan
PSCL4 TIMELY PREFETCHES:          0 LATE PREFETCHES: 0 DROPPED PREFETCHES: 0
PSCL4 PREFETCHES SAME FILL-ORIGIN LEVEL: 0 DIFFERENT FILL-ORIGIN LEVEL: 0

PSCL3 TOTAL     ACCESS:       9713  HIT:       9682  MISS:         31  HIT %:    99.6808  MISS %:    0.31916   MPKI: 0.000155
PSCL3 LOAD TRANSLATION ACCESS:       9282  HIT:       9251  MISS:         31  HIT %:     99.666  MISS %:    0.33398   MPKI: 0.000155
PSCL3 TRANSLATION FROM L1D PREFETCHER ACCESS:        431  HIT:        431  MISS:          0  HIT %:        100  MISS %:          0   MPKI: 0
PSCL3 PREFETCH  REQUESTED:          0  ISSUED:          0  USEFUL:          0  USELESS:          0
PSCL3 USEFUL LOAD PREFETCHES:          0 PREFETCH ISSUED TO LOWER LEVEL:          0  ACCURACY: -nan
PSCL3 TIMELY PREFETCHES:          0 LATE PREFETCHES: 0 DROPPED PREFETCHES: 0
PSCL3 PREFETCHES SAME FILL-ORIGIN LEVEL: 0 DIFFERENT FILL-ORIGIN LEVEL: 0

PSCL2 TOTAL     ACCESS:       9520  HIT:       8644  MISS:        876  HIT %:    90.7983  MISS %:    9.20168   MPKI: 0.00438
PSCL2 LOAD TRANSLATION ACCESS:       9378  HIT:       8502  MISS:        876  HIT %:     90.659  MISS %:    9.34101   MPKI: 0.00438
PSCL2 TRANSLATION FROM L1D PREFETCHER ACCESS:        142  HIT:        142  MISS:          0  HIT %:        100  MISS %:          0   MPKI: 0
PSCL2 PREFETCH  REQUESTED:          0  ISSUED:          0  USEFUL:          0  USELESS:          0
PSCL2 USEFUL LOAD PREFETCHES:          0 PREFETCH ISSUED TO LOWER LEVEL:          0  ACCURACY: -nan
PSCL2 TIMELY PREFETCHES:          0 LATE PREFETCHES: 0 DROPPED PREFETCHES: 0
PSCL2 PREFETCHES SAME FILL-ORIGIN LEVEL: 0 DIFFERENT FILL-ORIGIN LEVEL: 0

LLC TOTAL     ACCESS:    1654761  HIT:    1619779  MISS:      34982  HIT %:     97.886  MISS %:    2.11402   MPKI: 0.17491
LLC LOAD      ACCESS:    1110897  HIT:    1091650  MISS:      19247  HIT %:    98.2674  MISS %:    1.73256   MPKI: 0.096235
LLC RFO       ACCESS:     208762  HIT:     193679  MISS:      15083  HIT %:     92.775  MISS %:    7.22497   MPKI: 0.075415
LLC PREFETCH  ACCESS:      42804  HIT:      42425  MISS:        379  HIT %:    99.1146  MISS %:   0.885431   MPKI: 0.001895
AGUS PREFETCH L1 MISS: 0
LLC WRITEBACK ACCESS:     285154  HIT:     285084  MISS:         70  HIT %:    99.9755  MISS %:  0.0245481   MPKI: 0.00035
LLC LOAD TRANSLATION ACCESS:       6701  HIT:       6608  MISS:         93  HIT %:    98.6121  MISS %:    1.38785   MPKI: 0.000465
LLC TRANSLATION FROM L1D PREFETCHER ACCESS:        443  HIT:        333  MISS:        110  HIT %:    75.1693  MISS %:    24.8307   MPKI: 0.00055
LLC PREFETCH  REQUESTED:          0  ISSUED:          0  USEFUL:         60  USELESS:        191
LLC USEFUL LOAD PREFETCHES:         60 PREFETCH ISSUED TO LOWER LEVEL:        379  ACCURACY: 15.8311
LLC TIMELY PREFETCHES:         60 LATE PREFETCHES: 0 DROPPED PREFETCHES: 0
LLC PREFETCHES SAME FILL-ORIGIN LEVEL: 0 DIFFERENT FILL-ORIGIN LEVEL: 0
LLC AVERAGE MISS LATENCY: 144.025 cycles
LLC RQ	ACCESS:    1326803	FORWARD:          0	MERGED:          0	TO_CACHE:    1326803
LLC WQ	ACCESS:     285154	FORWARD:          0	MERGED:          0	TO_CACHE:     285154
LLC PQ	ACCESS:      42804	FORWARD:          0	MERGED:          0	TO_CACHE:      42804

LLC Dense regions hint to LLC: 0

RAW hits: 1387193
Loads Generated: 48342365
Loads sent to L1D: 46955172
Stores Generated: 26311868
Stores sent to L1D: 26311887
Major fault: 0 Minor fault: 1910
Allocated PAGES: 1910
Completed 
Accuracy : 88.6955
Number of unique groups: 2444512

DRAM Statistics
 CHANNEL 0
 RQ ROW_BUFFER_HIT:      10937  ROW_BUFFER_MISS:      23964
 DBUS_CONGESTED:         72
 WQ ROW_BUFFER_HIT:       2166  ROW_BUFFER_MISS:      14735  FULL:          0

 AVG_CONGESTED_CYCLE: 5
 All warmup complete: 2
Channel 0 Bank busy for read cycles: 0
Channel 0 Bank busy for write cycles: 0
Channel 0
Rank 0
0banks busy for read cycles: 589545064
0banks busy for write cycles: 5391
1banks busy for read cycles: 1340279
1banks busy for write cycles: 644945
2banks busy for read cycles: 333023
2banks busy for write cycles: 150653
3banks busy for read cycles: 189250
3banks busy for write cycles: 94406
4banks busy for read cycles: 114537
4banks busy for write cycles: 62307
5banks busy for read cycles: 81372
5banks busy for write cycles: 48963
6banks busy for read cycles: 57654
6banks busy for write cycles: 39451
7banks busy for read cycles: 29941
7banks busy for write cycles: 45483
8banks busy for read cycles: 18538
8banks busy for write cycles: 82834

CPU 0 Branch Prediction Accuracy: 99.8429% MPKI: 0.27698 Average ROB Occupancy at Mispredict: 52.7606
Branch types
NOT_BRANCH: 164736751 82.3684%
BRANCH_DIRECT_JUMP: 2184471 1.09224%
BRANCH_INDIRECT: 11367631 5.68382%
BRANCH_CONDITIONAL: 13694607 6.8473%
BRANCH_DIRECT_CALL: 3386061 1.69303%
BRANCH_INDIRECT_CALL: 622186 0.311093%
BRANCH_RETURN: 4008227 2.00411%
BRANCH_OTHER: 0 0%

DRAM PAGES: 1048576
Allocated PAGES: 1910
